 7

 O                  1.00289100    0.00090400   -0.98476500
 O                 -1.95713100   -0.00060800   -0.43136300
 O                 -1.47590000   -0.00053600    1.05428800
 P                  2.00415100   -0.00022400    0.42472200
Ca                 -0.34906600    1.57462300   -0.08410400
Ca                 -0.34864800   -1.57434000   -0.08446600
 H                  3.33313500   -0.00037000   -0.10471700
