 7

 O                 -1.69963100    0.73939500    0.76678800
 O                  0.83262700   -0.86997000    0.07006000
 O                 -1.66923600    0.72873900   -0.80392300
 P                  2.45919400   -0.46129600   -0.12092800
Ca                  0.32658900    1.44687900    0.01257300
Ca                 -1.30045400   -1.31970300    0.00165000
 H                  2.87931000   -0.40937700    1.26608000
