 7

 O                 -1.10664200   -0.00209400   -0.92800700
 O                  1.79783000    0.00287500   -0.56491700
 O                  1.81060100    0.00192300    0.94546000
 P                 -2.00780500   -0.00257600    0.53265700
Ca                  0.18087800    1.69174100   -0.11849900
Ca                  0.18606000   -1.69102300   -0.11856400
 H                  2.76399700    0.00265100    1.13110400
