 7

 O                 -0.00169100   -0.13678900    1.07353900
 O                 -1.32707200    1.23589400   -0.54542800
 O                  1.32363900    1.23702500   -0.54421400
 P                 -0.00221600    1.24124400    0.24655600
Ca                 -1.84492100   -0.99257800   -0.11826300
Ca                  1.84878500   -0.98865300   -0.11805900
 H                 -0.00304700    2.31694100    1.15692400
