 7

 O                  0.21676800   -1.01746300   -0.23120100
 O                  2.37719200    0.11814400    0.23759000
 O                 -1.48761100    1.24000300    0.63790600
 P                  1.71096900   -1.26159700    0.14433400
Ca                 -2.14147700   -0.81297100   -0.10961300
Ca                  0.52224200    1.52645200   -0.29870800
 H                 -2.13061400    1.92887400    0.84706700
