 7

 O                 -2.06603700   -0.49581700   -0.00062300
 O                  0.16625700   -0.44823800   -1.22797100
 O                  0.16503000   -0.44807300    1.22814800
 P                 -0.68285200   -1.28707500    0.00018000
Ca                  1.97808900    0.00959900    0.00005500
Ca                 -0.84249800    1.40337800   -0.00003400
 H                  1.40896100    2.18362900    0.00044400
