 7

 O                 -1.32541300    1.23624000   -0.54482800
 O                  1.32521500    1.23649600   -0.54464100
 O                 -0.00011300   -0.13732700    1.07321900
 P                 -0.00011800    1.24058800    0.24673800
Ca                 -1.84744000   -0.99028500   -0.11821100
Ca                  1.84766700   -0.99011200   -0.11822700
 H                 -0.00027200    2.31584200    1.15768700

