 7

 O                  0.14636500   -1.51954600   -0.00125600
 O                 -2.17317200   -0.45199300    0.00091800
 O                  3.79228700    0.31237700    0.00099500
 P                 -1.37302500   -1.76471000    0.00069200
Ca                 -1.63860200    1.80967400    0.00009700
Ca                  1.72511800    0.15628500   -0.00146000
 H                  4.74121200    0.42475800    0.01161100
