 7

 O                  1.43615800    1.13970900    0.01933400
 O                  1.17886300   -1.39611200    0.01756600
 O                 -1.78950000    0.17828800    0.72527500
 P                  2.15699100   -0.21445300    0.13384200
Ca                 -0.72129300    1.92584300   -0.22587300
Ca                 -1.08992900   -1.74738700   -0.22509800
 H                 -2.73457800    0.27259700    0.91438500
