 7

 O                 -2.37690200    0.11895400    0.23773200
 O                 -0.21712600   -1.01786000   -0.23127100
 O                  1.48779000    1.23951400    0.63862000
 P                 -1.71138800   -1.26114200    0.14445500
Ca                  2.14106800   -0.81315100   -0.10973500
Ca                 -0.52159300    1.52635800   -0.29900400
 H                  2.13122100    1.92812700    0.84731400
