 7

 O                 -0.00266000   -0.11361000    1.18056600
 O                 -1.28772500    1.18016700   -0.60740000
 O                  1.32245800    1.16303900   -0.59597700
 P                  0.01589900    1.44387500    0.31721000
Ca                  1.64427200   -0.94409600   -0.09353200
Ca                 -1.66755600   -0.91406300   -0.09137400
 H                 -0.02940000   -2.33170500   -0.87753100
