 9
 O                  1.17097700    0.77002900    1.24744000
 O                  0.97900600   -0.75017100    1.16555400
 O                  0.84515000   -0.24689200   -1.28820000
 O                 -1.33034300   -0.60823000   -0.07940300
 P                  0.12607700   -1.29833100   -0.28403600
Ca                 -3.52282600   -0.16553800    0.14070700
Ca                 -0.40781000    1.53330400   -0.28033500
Ca                  2.92266000   -0.07614100   -0.04191300
 H                  4.95005600    0.32457400   -0.47178500

