 9
 O                  1.94671700    0.00013100    0.55541900
 O                 -0.24516800    1.26227000    0.66707100
 O                 -0.24487600   -1.26247100    0.66691900
 O                 -3.99845200   -0.00030500   -0.79607700
 P                  0.54247400   -0.00013600    1.43660000
Ca                 -2.10905700   -0.00017400    0.08526000
Ca                  1.48050100    1.82192900   -0.76914800
Ca                  1.48089500   -1.82161100   -0.76936200
 H                 -4.84964000    0.00216800   -1.23065900

