 9
 O                  1.31665700    0.39125600    0.95860300
 O                 -1.46184500   -2.01631500    0.10171200
 O                  2.38862200   -0.91820700   -0.95250400
 O                 -2.03337700    1.67352700   -0.21148900
 P                  2.42570800    0.51142900   -0.27655400
Ca                  0.65497700   -1.79188700    0.28717400
Ca                 -2.76007700   -0.34718300   -0.18919800
Ca                  0.01803900    2.07593900    0.12827500
 H                  3.67513200    0.54909400    0.45272000

