 9
 O                  3.01499200    0.00140600    0.09920000
 O                  0.73577400    1.25769300    0.69198400
 O                  0.74053700   -1.29327800    0.61730100
 O                 -1.75459100    0.01223200   -0.49859900
 P                  1.51944900    0.00157100    0.01644900
Ca                 -0.55343300   -1.67933100   -1.20933500
Ca                 -0.56088700    1.74736500   -1.10926400
Ca                 -1.01510400   -0.05362500    1.76239000
 H                 -2.09693100   -0.13616000    3.59835300

