 8

 O                  0.00000000    1.18036800    0.00000000
 O                 -4.06651100    0.19746600    0.00000000
 O                 -3.85403100   -1.16642000    0.00000000
Ca                 -1.80261000   -0.16087900    0.00000000
 O                  0.22349400   -1.34255000    0.00000000
 P                  1.22918200    0.17206800    0.00000000
 H                  0.72522800   -2.16596600    0.00000000
Ca                  3.92328100    0.59258100    0.00000000
