 8

 O                 -0.10792600   -1.10837700    0.01296900
 O                  2.12131100    0.05395500   -0.47736600
 O                  2.18501800    0.94091300    0.75976700
 P                  1.48927000   -1.43504900    0.04112700
 H                  1.68465600   -1.96899700   -1.29508400
Ca                 -2.27262300   -0.72833100    0.11084200
 O                 -1.99390900    1.34184000   -0.10719200
Ca                  0.18964000    1.41173400   -0.15220400
