 8

 O                 -0.03107000   -1.20248700    0.00081500
 O                 -2.43799200   -2.24409100    0.00002100
 O                 -2.05483700    0.35872700   -0.00090200
 P                 -1.54433300   -1.07179700   -0.00005600
Ca                 -0.87647100    2.35636200    0.00017500
Ca                  1.98504800   -0.10820100    0.00012400
 O                  4.02651200   -0.44991500   -0.00074000
 H                  4.97256100   -0.58413200    0.00130100
