 8

 O                 -1.71332400    0.82241700   -0.64966100
 O                  2.06761300    0.70661200   -0.44551200
Ca                  0.26958800    1.78213400    0.00557900
 O                 -0.40854900   -0.19319000    1.24194200
 P                 -1.69418100   -0.44598600    0.28336900
Ca                  1.36500500   -1.22661300    0.12169700
 O                 -0.71646100   -1.67634300   -0.78775100
 H                 -1.11337100   -1.69659200   -1.66818400
