 8

 O                  1.84899000    1.12831500   -0.49689900
 H                  2.60144900    1.72982700   -0.36215000
 O                  1.40404400    0.87857200    0.93499400
 P                 -1.95245500   -1.13845900   -0.00418100
Ca                  1.75570300   -1.31793500    0.05907300
 O                 -0.49774600   -0.91952500   -0.55999500
Ca                 -0.54331100    1.54939500   -0.15993700
 O                 -2.45059900    0.25237200    0.42716700
