 8

 O                 -0.38572400    3.36748500    0.00000000
 P                  0.00000000    1.72080400    0.00000000
 H                  0.43010500    3.88692800    0.00000000
 O                 -1.43106500    0.98989800    0.00000000
 O                 -0.18701200   -2.99448900    0.00000000
 O                  0.69990100   -1.78168400    0.00000000
Ca                  1.96661200   -0.11104200    0.00000000
Ca                 -1.46655800   -1.20639200    0.00000000
