 8

 O                 -1.94936300    0.48349900    0.10524300
 O                 -3.11613800   -0.43088100   -0.18385500
 P                 -1.50478600   -1.17584300    0.08271400
 H                 -1.33093400   -1.45147300   -1.31703400
 O                  0.36650400   -0.61884200   -0.19155900
 O                  0.90983400    0.01955400    1.08705900
Ca                  2.72311300   -0.54311600   -0.18750600
Ca                 -0.01231200    1.71624000   -0.13543400
