 8

Ca                  0.84803500    1.63691600    0.04659300
 O                 -1.34890800    1.31934400   -0.67763600
 O                  2.14691400    0.00362000   -0.42107600
 P                 -1.54708000   -0.00249900    0.10463900
 H                 -2.82893000   -0.00439400    0.68913800
 O                 -0.45334300   -0.00058300    1.26075800
Ca                  0.85374400   -1.63418600    0.04652900
 O                 -1.34472100   -1.32397100   -0.67719300
