 8

 O                 -1.92954300   -0.90346100    0.00000000
 P                 -0.34281400   -0.87568300    0.00000000
Ca                 -2.32333800    1.37361500    0.00000000
 H                 -3.75690400    2.90277500    0.00000000
 O                  0.00000000    0.83927900    0.00000000
 O                  1.37937700    1.26741700    0.00000000
Ca                  2.64110100   -0.57256600    0.00000000
 O                  0.86814700   -1.92679800    0.00000000
