 8

 O                 -1.44519000   -1.29404800   -0.05709900
 P                 -2.27831500   -0.00092200   -0.06749100
 O                  1.10168200    0.00007100    1.62578000
 H                  0.64916600    0.00004000    2.47598300
 O                 -1.44666000    1.29318200   -0.05783500
 O                  1.57949400    0.00089700   -1.36652000
Ca                  0.87947200    1.54959200   -0.06519900
Ca                  0.88107600   -1.54894400   -0.06571300
