 8
 O                  2.55904100    1.24602600    0.00038300
 O                  2.55908000   -1.24600200   -0.00045700
 P                  3.47088000    0.00002800   -0.00025200
Ca                  0.53128800   -0.00003400    0.00033600
 O                 -1.55636900   -0.00069000    0.78854200
 O                 -1.55617900    0.00063800   -0.78837100
Ca                 -3.64869200    0.00002300   -0.00016700
 H                 -5.75970800    0.00003100   -0.00038500
