 8

 O                  0.12191600    1.47335400   -0.08885800
 O                  2.49473000    0.54399700    0.07300500
 P                  1.62148500    1.80727500    0.00750900
Ca                  2.09284800   -1.74571700    0.05076600
Ca                 -1.36348500   -0.28128500   -0.16690900
 O                 -3.52513400   -0.29462600   -0.66889700
 O                 -3.45104600   -0.12348400    0.84065300
 H                 -4.03327500    0.63699300    0.96299100
