 8

 O                 -1.60117900    1.36749200   -0.00152600
 O                 -0.06726500   -0.26182700   -1.20618900
Ca                 -1.93863200   -0.94002400    0.00000700
 P                 -0.13985600    0.85041400   -0.00001000
 O                  1.14370800    1.66823100   -0.00044700
 O                 -0.06855700   -0.25939100    1.20803600
Ca                  2.10048100   -0.59952900    0.00018200
 H                  3.60721500   -2.08119200   -0.00260300
