 8

 O                 -2.45961900   -0.71505800   -0.00035800
 P                 -0.94807900   -1.18700800   -0.00005700
Ca                 -1.57257700    1.35299500    0.00008200
 O                 -0.25983100   -0.23829300   -1.21203000
 O                 -0.26029400   -0.23887800    1.21246000
Ca                  1.75986800   -0.22568500   -0.00011300
 O                  3.71308900    0.49589400    0.00001000
 H                  4.60860200    0.82960300    0.00082200
