 8

 O                  0.47530900   -1.96173500    0.76706500
 O                  0.47530900   -1.96173500   -0.76706500
 P                  1.29999100   -0.39764300    0.00000000
Ca                 -0.24599300    2.20127500    0.00000000
 H                 -2.33686900    1.34462000    0.00000000
 O                  0.47530900    0.48067000    1.19989500
Ca                 -1.37265000   -0.78542100    0.00000000
 O                  0.47530900    0.48067000   -1.19989500
