 8

Ca                  2.09993300   -0.59997800    0.00016900
 H                  3.61452200   -2.07265200   -0.00297500
 O                 -0.06584600   -0.26295000   -1.20518300
 P                 -0.13996700    0.85067200   -0.00006200
 O                  1.14387200    1.66795900    0.00014500
 O                 -1.60119500    1.36765700   -0.00402200
Ca                 -1.93818400   -0.94024500    0.00003900
 O                 -0.07058100   -0.25803500    1.20902800
