 8

 O                  1.21023400    0.85403700    0.92193000
 O                  0.13631300   -1.47493400    0.92194700
 O                 -0.00119300    0.00054400   -1.71186900
 O                 -1.34409600    0.61978300    0.92287500
 P                  0.00182700   -0.00083200    1.71804300
Ca                 -1.58984000   -1.12269900   -0.56928300
Ca                 -0.17846800    1.93808300   -0.56929400
Ca                  1.76643500   -0.81453200   -0.57190800
