 8

 O                 -0.97933700   -1.42995600   -0.85398800
 O                  1.01362400   -1.42058600    0.85506800
 O                 -0.94998300    0.39709000    0.83482900
 O                  0.94964800    0.42183300   -0.81658800
 P                  0.00887200   -0.61035800    0.00571700
Ca                 -2.90358500   -0.57699900    0.00342800
Ca                 -0.03512200    2.38911200   -0.00040000
Ca                  2.91847200   -0.54169700   -0.01504400
