 8

 O                 -0.98459800    1.10792600    0.92027000
 O                 -0.46797600   -1.40483100    0.92246600
 O                  0.00305700   -0.00130900   -1.71169900
 O                  1.44834500    0.29942600    0.92391900
 P                 -0.00307700    0.00134200    1.71773400
Ca                 -1.90561000   -0.39225200   -0.57236000
Ca                  1.29363800   -1.45500700   -0.56746500
Ca                  0.61474800    1.84576700   -0.57045700
