 8

 O                  0.27898000   -1.09258500   -0.20538000
 O                  2.30587000    0.89723800    1.02709100
 O                  2.68621100    0.83778700   -0.49482500
 O                 -1.59160000    0.58497800   -0.52773900
 P                 -1.20828300   -1.01856500   -0.80826300
Ca                  0.54565300    1.49391000   -0.25072300
Ca                  2.46991000   -1.21367500    0.33582600
Ca                 -3.58113500   -0.00727800    0.60143600
