 8

 O                 -2.35616500    1.14224000   -0.00030700
 O                 -2.05549900   -1.37024500    0.00005400
 O                  1.04466400    0.18687000    0.78165800
 O                  1.04486500    0.18699500   -0.78143600
 P                 -3.08718300   -0.22177200    0.00015500
Ca                 -0.23264200    1.95279200   -0.00000900
Ca                  3.29582200    0.02199300    0.00003200
Ca                  0.18106100   -1.86680100   -0.00012600
