 8

 O                  0.16323400   -1.47253300    0.92037100
 O                 -1.35541500    0.59449000    0.92336300
 O                  1.19395900    0.87578000    0.92195400
 O                 -0.00152300    0.00115000   -1.71273500
 P                  0.00121100   -0.00135700    1.71795400
Ca                 -0.21390200    1.93409900   -0.56877000
Ca                 -1.56924800   -1.15120600   -0.56965900
Ca                  1.78213900   -0.78143000   -0.57121800
