 8

 O                 -1.24545200    0.80076100    0.92276600
 O                 -0.07052900   -1.47889900    0.92266700
 O                  1.31653000    0.67850100    0.92207000
 O                 -0.00031500   -0.00022300   -1.71198800
 P                  0.00045700    0.00026300    1.71827700
Ca                 -1.72982600   -0.89147700   -0.56993200
Ca                  1.63671500   -1.05230400   -0.57044300
Ca                  0.09267500    1.94352800   -0.57053800
