 8

 O                 -1.47428300    0.12010000    0.92446000
 O                  0.63408300   -1.34031300    0.91988500
 O                  0.84429300    1.21614300    0.92325000
 O                 -0.00346400    0.00258500   -1.71155000
 P                  0.00225200   -0.00254800    1.71815400
Ca                  1.93874000   -0.15871900   -0.57267600
Ca                 -1.10855400   -1.59875900   -0.57083500
Ca                 -0.83212600    1.75998300   -0.56752200
