 8

 O                  1.36315900    0.57965500    0.92187100
 O                 -0.18035900   -1.46900900    0.92294100
 O                 -1.18238000    0.89218700    0.92196000
 O                 -0.00019000   -0.00140000   -1.71185300
 P                  0.00031600    0.00207100    1.71804400
Ca                 -1.79138600   -0.76101700   -0.56922000
Ca                  1.55404000   -1.17175600   -0.56928500
Ca                  0.23701700    1.93064700   -0.57199700
