 8

 O                  0.37622300    0.70995600   -0.00310200
 O                  0.41952000   -0.82327900   -0.00273000
 O                 -3.77744800    0.97608200    0.02156700
 O                  3.66702500    0.05858500    0.00236200
 P                 -4.59061500   -0.38191100   -0.00634300
Ca                  2.40506300    1.75672100   -0.00267000
Ca                  2.51920200   -1.71889400    0.00350000
Ca                 -1.75543200   -0.11993100   -0.00331100
