 8

 O                 -0.51449500    1.25912400   -0.36873100
 O                 -1.56240700    0.00068700    1.54101800
 O                  1.15929700   -0.00008500    1.08026800
 O                 -0.51486100   -1.25997600   -0.36769800
 P                 -0.34149400   -0.00024000    0.61840000
Ca                  1.74800900    1.87898500   -0.31470400
Ca                  1.74918700   -1.87830400   -0.31475700
Ca                 -2.66808900   -0.00040100   -0.58828200
