 8

 O                  1.43582300    0.36253100    0.92220500
 O                 -1.03108700    1.06374800    0.92187000
 O                 -0.40452200   -1.42317200    0.92315800
 O                 -0.00039200   -0.00147400   -1.71162400
 P                  0.00014000    0.00148400    1.71805300
Ca                  0.53182200    1.87089600   -0.57175800
Ca                  1.35523000   -1.39672600   -0.56930800
Ca                 -1.88708600   -0.47593600   -0.56971700
