 8

 O                 -1.20734000   -1.30469600   -0.45518700
 O                  0.74941900    0.00010900    1.32244500
 O                  2.16721600    0.00031500    0.76168400
 O                 -1.20773300    1.30440400   -0.45523100
 P                 -1.09249400   -0.00015400   -1.56095300
Ca                  1.05905200    1.69142800   -0.33679300
Ca                  1.05955300   -1.69120300   -0.33675400
Ca                 -1.49986000   -0.00016200    1.37477800
