 8

 O                  0.99776800   -1.42583100   -0.85353900
 O                  0.94979500    0.41030700    0.82526800
 O                 -0.94928300    0.40807400   -0.82674000
 O                 -0.99554500   -1.42524400    0.85503600
 P                  0.00074600   -0.61062100    0.00005300
Ca                 -2.91042600   -0.56059500   -0.00926700
Ca                  2.91169500   -0.55763900    0.00917500
Ca                 -0.00292300    2.38927700    0.00004300
