 8

 O                 -0.80555700    1.24418100    0.92075600
 O                 -0.67311700   -1.31695400    0.92452700
 O                  1.47925800    0.07693600    0.92177600
 O                 -0.00021900   -0.00234200   -1.71134200
 P                  0.00023600    0.00170000    1.71813200
Ca                  0.88555200    1.73266200   -0.57174100
Ca                  1.05897700   -1.63366000   -0.56908000
Ca                 -1.94485200   -0.10100500   -0.57006500
