 8

 O                  1.24405600    0.78759000    1.22449800
 O                  1.03617200   -0.76382700    1.15089100
 O                  0.96848700   -0.27206100   -1.29588800
 O                 -1.25200300   -0.57593800   -0.13853900
 P                  0.17865500   -1.30770500   -0.30627400
Ca                 -3.46819300   -0.21703200    0.18006900
Ca                 -0.37515600    1.60748700   -0.29304800
Ca                  2.91067400   -0.07998300   -0.03370100
