 8

 O                 -1.66981200   -1.51027400   -0.00344900
 O                 -2.93838200    0.66935300    0.01104500
 O                  0.82805600    0.94221100   -0.00467100
 O                  2.83830400   -1.41629700    0.00639000
 P                 -3.07159000   -0.87735500   -0.00142600
Ca                 -1.07227400    1.95379000   -0.00152300
Ca                  0.67001100   -1.45923100   -0.00147000
Ca                  3.08268900    0.68946000    0.00033700
