 8

 O                 -0.19158200   -1.46729200    0.92367000
 O                  1.36862900    0.56816400    0.92092500
 O                 -1.17478100    0.90147500    0.92229200
 O                 -0.00128900   -0.00160700   -1.71238100
 P                  0.00128000    0.00124100    1.71824600
Ca                 -1.79777900   -0.74631100   -0.56871000
Ca                  1.54416000   -1.18394900   -0.57040000
Ca                  0.25226700    1.92903300   -0.57137700
