 8

 O                  0.24150900   -1.46091900    0.92245500
 O                 -0.00015900   -0.00016900   -1.71200700
 O                  1.14460900    0.93962500    0.92247600
 O                 -1.38577600    0.52145900    0.92282300
 P                  0.00027500   -0.00004900    1.71818100
Ca                 -0.31735300    1.91977600   -0.57034000
Ca                  1.82128500   -0.68515100   -0.57046800
Ca                 -1.50421100   -1.23458700   -0.57012600
