 8

 O                 -1.20706800   -1.30454900   -0.45637600
 O                  2.16706500    0.00003100    0.76067100
 O                 -1.20701000    1.30493200   -0.45492200
 O                  0.74990100   -0.00085900    1.32250200
 P                 -1.09290200    0.00079100   -1.56156400
Ca                 -1.49969100   -0.00096400    1.37563600
Ca                  1.05881300    1.69203600   -0.33595800
Ca                  1.05939900   -1.69148800   -0.33725500
