 8

 O                  1.15282100    0.93158100    0.92087500
 O                 -1.38112400    0.53207400    0.92418800
 O                  0.23168700   -1.46213400    0.92316400
 O                 -0.00244500   -0.00066800   -1.71211600
 P                  0.00228200    0.00073400    1.71849600
Ca                  1.81566800   -0.69893300   -0.57195100
Ca                 -1.51389000   -1.22395000   -0.56859500
Ca                 -0.30386600    1.92199100   -0.57077100
