 8

 O                  3.26924300    0.82140100   -0.00093200
 O                  0.81740200    1.56240500    0.00169200
 O                  0.90888800   -1.86273300    0.00054800
 O                 -2.84327700   -0.04869100    0.00105000
 P                  2.28177000    2.01843100   -0.00075000
Ca                  2.96904300   -1.44541200   -0.00119400
Ca                 -4.89952200    0.06835200   -0.00164700
Ca                 -0.64175100   -0.32571700    0.00246000
