 8

 O                 -1.40529800   -1.07838300   -1.28321600
 O                 -1.40580200   -1.08073500    1.28172400
 O                  1.31066400    0.39374900    0.00038400
 O                 -1.06080200    2.23645000    0.00165000
 P                 -1.88318500   -1.79501200   -0.00150100
Ca                 -0.32725400    0.96194800    1.59548800
Ca                  3.09093700   -0.76887100   -0.00034400
Ca                 -0.32679900    0.96474900   -1.59423500
