 8

 O                 -1.98177900   -0.84326900   -0.19190500
 O                  0.33904400    0.35136900    0.02369300
 O                 -2.72252100    0.38491400   -0.71136500
 O                  0.16401600   -2.16737300   -0.47200700
 P                 -0.53239400   -0.90409400   -1.08969500
Ca                  1.93238800    1.91807200   -0.55982300
Ca                  1.78003100   -1.39521800    0.84349700
Ca                 -1.63262800    1.06496000    1.07423100
