 8

 O                  2.23853800    0.00057800    1.33169200
 O                  0.58633200   -1.25378300   -0.10737500
 O                  0.58823200    1.25360700   -0.11153300
 O                 -2.69286000    0.00069800   -0.33285500
 P                  0.69143900    0.00139800    1.03429400
Ca                 -1.62461500   -1.81770400   -0.07584700
Ca                 -1.62253700    1.81808500   -0.07636500
Ca                  2.44047500   -0.00186900   -0.93548000
