 8

 O                 -2.66540700   -0.00023000    0.13503500
 O                 -1.91429300   -0.00004200   -1.24152000
 O                  1.03694400    1.32115200    0.10259500
 O                  1.03778500   -1.32128200    0.10098800
 P                  0.93261000   -0.00069100    1.27275400
Ca                  2.73276300    0.00061400   -0.63387300
Ca                 -1.21485500   -1.71713100    0.02017700
Ca                 -1.21537700    1.71719500    0.02029100
