 8

 O                  1.33159200   -0.81624600   -0.24198500
 O                 -2.77545800   -0.52228400    0.42086800
 O                 -2.29968000   -0.07041100   -0.91836800
 O                 -1.65480700   -0.26827200    1.37364300
 P                  1.24621400    0.88160400   -0.92917200
Ca                 -1.34017800    1.71432900    0.20636400
Ca                 -0.75330400   -1.65601000   -0.25045200
Ca                  3.31816300   -0.04863700    0.48730400
