 8

 O                  0.61370300   -1.34705200    0.92242300
 O                  0.00175700    0.00044900   -1.71143300
 O                 -1.47556700    0.14046300    0.92079400
 O                  0.85831800    1.20535200    0.92364200
 P                 -0.00141500   -0.00130700    1.71783400
Ca                 -0.80862600    1.76991900   -0.56990800
Ca                 -1.12845400   -1.58446900   -0.57172100
Ca                  1.93885700   -0.18415400   -0.56891700
