 8

 O                 -0.88975100    0.98844100    0.32445900
 O                 -0.21089900   -1.46692300    0.60579200
 O                 -2.38557200    0.92103100    0.41121700
 O                  1.42591400    0.40964300    0.85310000
 P                 -0.00214900   -0.08917900    1.48541200
Ca                 -1.94401800   -0.90009600   -0.82295000
Ca                  1.87562500   -1.46357800   -0.48890700
Ca                  0.89412800    2.08968100   -0.68002900
