 8

 O                 -0.64038000    1.27974000   -0.64527300
 O                 -0.63691900   -1.27915700   -0.64745600
 O                  1.60008600    0.00111200    0.89030200
 O                 -2.61253600   -0.00316500    0.22980300
 P                 -1.68365900   -0.00081800   -1.04731600
Ca                  1.44111100    1.85398100   -0.32056800
Ca                 -0.70700400   -0.00069100    1.49563200
Ca                  1.44453800   -1.85208900   -0.32052800
