 8

 O                  2.07031200    1.27418600   -0.00083500
 O                 -1.77974500    1.88573200    0.00084500
 O                  2.06900200   -1.27584800    0.00127800
 O                 -1.78139600   -1.88453800   -0.00098900
 P                  2.93674900   -0.00123700    0.00007600
Ca                  0.20119700    2.59231700   -0.00024600
Ca                 -2.83400600    0.00096800    0.00019800
Ca                  0.19897800   -2.59217000   -0.00012800
