 8

 O                 -2.67243100   -1.29428300    0.00046200
 O                 -1.71081000    0.99017800    0.00442800
 O                  1.21706800   -0.02183500    1.34762900
 O                  1.21434400   -0.02495100   -1.34751400
 P                 -3.05821100    0.19053800   -0.00227100
Ca                 -0.30377800   -1.21620000    0.00141700
Ca                  2.91022000   -0.48461100   -0.00080900
Ca                  0.46794800    1.69826400   -0.00090600
