 8

 O                 -1.91510600   -0.00023100   -1.24103700
 O                  1.03720600   -1.32090400    0.10191300
 O                  1.03774700    1.32175500    0.10158700
 O                 -2.66471900   -0.00001600    0.13633200
 P                  0.93284600    0.00073700    1.27257300
Ca                 -1.21494800    1.71722800    0.01959400
Ca                 -1.21516200   -1.71734400    0.02023900
Ca                  2.73242500   -0.00068000   -0.63378100
