 8

 O                 -4.36005600    1.24374800   -0.00113100
 O                 -4.36174200   -1.24302800   -0.00115100
 O                 -0.17428900   -0.00090000    0.00422400
 O                  4.15802800    0.00053000   -0.00207900
 P                 -5.28425000    0.00097500   -0.00427700
Ca                  1.95685400    0.00010300    0.00002000
Ca                 -2.32661200   -0.00107600    0.00437400
Ca                  6.22816900    0.00010200   -0.00113100
