 8

 O                 -1.20900300    1.30349200   -0.45582700
 O                  0.74954300    0.00109300    1.32211900
 O                  2.16762500    0.00131300    0.76052100
 O                 -1.20498700   -1.30593400   -0.45617500
 P                 -1.09169800   -0.00057900   -1.56185100
Ca                  1.05772500    1.69295200   -0.33581100
Ca                 -1.50085700   -0.00133800    1.37484900
Ca                  1.06063500   -1.69116500   -0.33590400
