 8

 O                  0.89327300   -0.00972600   -0.54690900
 O                 -2.88277800   -0.23787200   -0.27243800
 O                 -1.92764400    0.06405300   -1.36009800
 O                 -2.17625600    0.10862200    0.98973500
 P                  1.24707500    0.00892400    1.35448900
Ca                  3.15373800   -0.06740000   -0.50666300
Ca                 -0.87406700   -1.53292800    0.00802300
Ca                 -0.77761600    1.62360400   -0.04134200
