 8

 O                 -0.90258200    1.17511100    0.92125300
 O                 -0.56630800   -1.36730800    0.92319500
 O                  0.00017200   -0.00159500   -1.71208800
 O                  1.46746200    0.19502900    0.92269900
 P                 -0.00082900    0.00162700    1.71817300
Ca                  1.18595700   -1.54354800   -0.56865400
Ca                 -1.92902400   -0.25557700   -0.57068700
Ca                  0.74419100    1.79741100   -0.57131300
