 8

 O                 -1.56468600    0.97770600    0.00613000
 O                  1.12047200   -0.44988200   -0.77801900
 O                  1.12345100   -0.44953400    0.77978900
 O                 -3.06978700   -0.97986800   -0.00622600
 P                 -3.07604400    0.55870200   -0.00405800
Ca                  3.37987200   -0.36519600   -0.00362900
Ca                 -0.77798500   -1.48172600    0.00458300
Ca                  0.66136500    1.78852700    0.00141900
