 8

 O                  1.34627500    0.61565100    0.92343500
 O                 -1.20704400    0.85894400    0.92158500
 O                 -0.14083200   -1.47387300    0.92235200
 O                  0.00103900   -0.00041500   -1.71192700
 P                 -0.00124100    0.00029300    1.71818600
Ca                  1.58570200   -1.12808900   -0.56932100
Ca                 -1.76937800   -0.80877700   -0.57092500
Ca                  0.18483200    1.93652300   -0.57057200
