 8

 O                  1.41795500    0.42843300    0.92190700
 O                 -1.07869300    1.01511300    0.92197300
 O                 -0.00030800   -0.00135900   -1.71186600
 O                 -0.33859400   -1.44081800    0.92290800
 P                  0.00050400    0.00198500    1.71805700
Ca                  1.41781800   -1.33334000   -0.56928200
Ca                 -1.86331500   -0.56227500   -0.56925900
Ca                  0.44497500    1.89357900   -0.57197000
