 8

 O                  0.19406400   -1.46845300    0.92194300
 O                 -1.36738000    0.56657800    0.92286900
 O                 -0.00120600    0.00049900   -1.71187000
 O                  1.17579400    0.90085400    0.92193900
 P                  0.00185000   -0.00076100    1.71804300
Ca                 -0.25436000    1.92959000   -0.56929400
Ca                 -1.54456800   -1.18420400   -0.56928900
Ca                  1.79703200   -0.74460600   -0.57190200
