 8

 O                  0.37079300   -1.43291300    0.92286900
 O                  1.05568200    1.03899600    0.92196900
 O                 -1.42718500    0.39651100    0.92191700
 O                  0.00033500   -0.00126600   -1.71186700
 P                 -0.00053100    0.00192700    1.71804500
Ca                 -1.38760000   -1.36475500   -0.56930800
Ca                  1.87543800   -0.52038200   -0.56927700
Ca                 -0.48728900    1.88316100   -0.57190500
