 8

 O                 -2.06969100   -1.27506800    0.00076000
 O                 -2.06867100    1.27553400   -0.00043800
 O                  1.77991400   -1.88566900   -0.00026100
 O                  1.78055600    1.88499100    0.00038700
 P                 -2.93590800    0.00056000    0.00071200
Ca                 -0.20058400   -2.59320600   -0.00064400
Ca                 -0.19958000    2.59339000   -0.00059800
Ca                  2.83325300   -0.00051900    0.00052800
