 8

 O                  0.38455100    1.11361300   -0.00572800
 O                  2.49479800   -1.08942500    0.78845900
 O                 -1.95955500   -0.87707400   -0.02066500
 O                  2.50894000   -1.08382600   -0.77835800
 P                 -3.54574200   -0.70295000    0.02550800
Ca                  0.38912300   -1.26912300   -0.01476900
Ca                 -1.72676500    1.56460800   -0.01078200
Ca                  2.62545600    1.00641100    0.01293800
