 8

 O                  3.35992800    0.66586200   -0.00233000
 O                 -0.88797100    0.95825200   -0.00073800
 O                  1.55666900   -1.02585300    0.00288700
 O                 -2.96304400   -1.32776900   -0.00014800
 P                  3.11209100   -0.85322700   -0.00142500
Ca                  1.18514200    1.56042500    0.00158700
Ca                 -3.13955100    0.79444900   -0.00087000
Ca                 -0.80589200   -1.42315000    0.00048300
