 8

 O                 -1.19445400    0.87598800    0.92192900
 O                  1.35510600    0.59817400    0.92190400
 O                 -0.00016100   -0.00138800   -1.71187800
 O                 -0.16032100   -1.47133500    0.92294100
 P                  0.00023900    0.00207900    1.71804300
Ca                 -1.78082200   -0.78536300   -0.56924400
Ca                  1.56986900   -1.15047400   -0.56926000
Ca                  0.21070600    1.93370200   -0.57198700
