 8

 O                 -0.12522600   -1.47572800    0.92171200
 O                 -1.21562000    0.84557500    0.92225900
 O                  0.00057700    0.00028900   -1.71199500
 O                  1.34002000    0.62929800    0.92328100
 P                 -0.00075700   -0.00076300    1.71819000
Ca                  0.16445200    1.93888900   -0.56973700
Ca                  1.59745500   -1.11125500   -0.57010000
Ca                 -1.76124000   -0.82683600   -0.57090700
