 8

 O                 -2.06858500    1.27501900    0.00040500
 O                  1.78017900   -1.88551700   -0.00040600
 O                  1.78014900    1.88485800   -0.00038700
 O                 -2.06969600   -1.27536700    0.00046300
 P                 -2.93601400    0.00024600    0.00028500
Ca                 -0.20036800   -2.59297400   -0.00043200
Ca                 -0.19988800    2.59352800   -0.00042500
Ca                  2.83344700   -0.00033600    0.00061400
