 8

 O                  0.90812100    1.16945800    0.92253700
 O                  0.55878800   -1.37153900    0.92189300
 O                 -1.46687100    0.20166600    0.92271400
 O                  0.00011200    0.00012000   -1.71223800
 P                  0.00019900   -0.00044300    1.71820900
Ca                 -0.73440000    1.80200800   -0.56997700
Ca                  1.92778800   -0.26490000   -0.57026100
Ca                 -1.19359700   -1.53665700   -0.57038100
