 8

 O                  1.38731300    0.51906400    0.92192500
 O                 -0.00022600   -0.00130200   -1.71187000
 O                 -1.14199900    0.94331900    0.92194800
 O                 -0.24484400   -1.45970900    0.92287900
 P                  0.00034900    0.00198500    1.71804200
Ca                 -1.82311000   -0.68142200   -0.56927400
Ca                  1.50097200   -1.23899500   -0.56929300
Ca                  0.32177900    1.91837900   -0.57191700
