 8

 O                 -2.23819100   -0.00337300    1.33165400
 O                  2.69258000    0.00300200   -0.33330500
 O                 -0.58429800   -1.25372700   -0.10891700
 O                 -0.58972600    1.25386300   -0.11005900
 P                 -0.69094700   -0.00081900    1.03398800
Ca                  1.62675000   -1.81672700   -0.07664800
Ca                  1.62037100    1.81904000   -0.07550100
Ca                 -2.44105700   -0.00160500   -0.93509100
