 8

 O                  0.58735000    1.25375300   -0.10830600
 O                  0.58654200   -1.25330400   -0.10916100
 O                  2.23935300   -0.00097400    1.33084100
 O                 -2.69223000    0.00014800   -0.33309300
 P                  0.69185900   -0.00003700    1.03479300
Ca                 -1.62370200   -1.81799500   -0.07617100
Ca                  2.43990300    0.00011400   -0.93601500
Ca                 -1.62350100    1.81806000   -0.07602200
