 8

 O                  2.95572900    0.66987400   -0.00100300
 O                  1.66409200   -1.49490500    0.00123000
 O                 -2.84389100   -1.41182700    0.00047200
 O                 -0.83034800    0.94421100   -0.00064600
 P                  3.07339600   -0.87807100   -0.00062900
Ca                  1.07786100    1.94052700    0.00079400
Ca                 -0.67621800   -1.45998600    0.00009400
Ca                 -3.08492300    0.69507100   -0.00043700
