 8

 O                  0.88836200    0.95897900    0.00002600
 O                 -1.55660300   -1.02504800   -0.00126000
 O                 -3.36005000    0.66582000    0.00134400
 O                  2.96287400   -1.32794700   -0.00208800
 P                 -3.11194700   -0.85316500    0.00299400
Ca                 -1.18515700    1.55980200   -0.00271000
Ca                  0.80565700   -1.42279700   -0.00142200
Ca                  3.13962600    0.79414800    0.00267800
