 8

 O                  1.26980500    0.91204200    0.42595400
 O                 -2.86781300    0.98548900   -0.47725300
 O                 -0.58397000   -0.82650500    0.34461700
 O                  1.93632800   -1.51235600    0.04382700
 P                  0.90119700   -0.71980700    0.97507100
Ca                 -2.69140600   -1.12648000   -0.39415900
Ca                 -0.94228000    1.63359600    0.24877900
Ca                  3.05604800    0.20927200   -0.72078100
