 8

 O                 -1.93765900   -1.51251700    0.04273800
 O                  2.87069300    0.98622300   -0.47241900
 O                 -1.27017500    0.91126200    0.42619000
 O                  0.58343700   -0.82684800    0.33849600
 P                 -0.90056600   -0.72073900    0.97232400
Ca                 -3.05898600    0.20991200   -0.71747200
Ca                  0.94229400    1.63318600    0.24680000
Ca                  2.69359800   -1.12579300   -0.39257300
