 8

 O                  2.77635600   -0.52142200    0.41989800
 O                  1.65599100   -0.26834800    1.37342700
 O                  2.29912600   -0.07110000   -0.91930900
 O                 -1.33227000   -0.81634300   -0.24019500
 P                 -1.24559400    0.88071700   -0.92848400
Ca                 -3.31955600   -0.04752300    0.48637900
Ca                  0.75278200   -1.65596800   -0.24970600
Ca                  1.34128900    1.71383800    0.20616200
