 8

 O                 -1.66989500   -1.51047300   -0.00357800
 O                 -2.93815600    0.66940500    0.01111400
 O                  0.82796700    0.94210400   -0.00462300
 O                  2.83825000   -1.41632600    0.00631900
 P                 -3.07156700   -0.87732800   -0.00132800
Ca                  0.66996400   -1.45940200   -0.00149200
Ca                  3.08263400    0.68950000    0.00040400
Ca                 -1.07218900    1.95401500   -0.00160900
