 8

 O                 -1.61566600   -1.63866200   -0.00850900
 O                  2.64939000   -1.36985700   -0.00283300
 O                 -2.71788700    0.64682900    0.00381300
 O                  0.96110600    1.66788300    0.00383200
 P                 -2.95792900   -0.87887200   -0.01019800
Ca                  0.64376600   -2.04574400    0.01163600
Ca                  2.93698300    0.75368500   -0.00813700
Ca                 -1.07308000    2.22873700    0.00562800
