 8

 O                  0.59694100   -0.88915500   -0.77595800
 O                 -1.87268300    0.86597600   -0.00067300
 O                  0.59643100   -0.88715100    0.77882000
 O                  2.57751100    1.46786500   -0.00109500
 P                 -3.44248700    0.56934000   -0.00170100
Ca                 -1.44373000   -1.52072100    0.00072400
Ca                  2.84024000   -0.63677200   -0.00136400
Ca                  0.42607600    1.50747400    0.00147800
