 8

 O                 -1.11836100   -0.44943900   -0.77692200
 O                 -1.12532200   -0.44906500    0.78088300
 O                  1.56519700    0.97816100    0.01289400
 O                  3.06942000   -0.98011600   -0.01396700
 P                  3.07623900    0.55848200   -0.00909400
Ca                 -0.66127000    1.78823300    0.00354600
Ca                 -3.38017700   -0.36518000   -0.00834500
Ca                  0.77789300   -1.48173100    0.01046500
