 8

 O                 -1.33005300   -0.11009300   -1.20966500
 O                 -1.33157700   -0.11007200    1.21009400
 O                 -3.42439500   -0.97567500   -0.00095600
 O                  2.87410200    0.19461600    0.00083900
 P                 -1.85925300   -1.18092900   -0.00025900
Ca                  0.68370200    0.01335600    0.00143400
Ca                 -2.93831400    1.22116300   -0.00051900
Ca                  4.93382200    0.05166800   -0.00084600
