 8

 O                 -0.13627900   -1.47493400    0.92103400
 O                 -1.20861300    0.85475100    0.92249600
 O                  1.34469900    0.61816000    0.92323900
 O                 -0.00030500    0.00091100   -1.71180000
 P                  0.00016800   -0.00142700    1.71770600
Ca                 -1.76787700   -0.81281800   -0.57027600
Ca                  0.17959900    1.93794200   -0.56908200
Ca                  1.58835200   -1.12360900   -0.57090900
