 8

 O                 -1.22876100    0.82472100    0.92388800
 O                 -0.09847300   -1.47708500    0.92246900
 O                  1.33051500    0.65296800    0.92086800
 O                 -0.00194500   -0.00035800   -1.71181000
 P                  0.00211300    0.00016000    1.71800200
Ca                  1.61571000   -1.08368800   -0.57146100
Ca                 -1.74769500   -0.85743100   -0.56858000
Ca                  0.12986600    1.94090000   -0.57062600
