 8

 O                  1.03614500   -0.76387300    1.15087200
 O                  1.24404500    0.78755600    1.22452400
 O                 -1.25201700   -0.57589900   -0.13856500
 O                  0.96847700   -0.27203200   -1.29589500
 P                  0.17862300   -1.30769100   -0.30631900
Ca                 -3.46819700   -0.21702900    0.18008600
Ca                 -0.37509600    1.60750700   -0.29304600
Ca                  2.91066500   -0.08001000   -0.03367500
