 8

 O                  0.68887600   -1.27548400    0.36363700
 O                 -1.44871100    0.04119700    0.36589100
 O                  0.76046300    1.23425200    0.36361300
 O                  0.00253600   -0.00008500    2.59352200
 P                  0.00095000    0.00002600    1.11384300
Ca                 -1.09064900    2.01732500   -0.76948400
Ca                 -1.20375900   -1.95201100   -0.76946500
Ca                  2.29243000   -0.06528600   -0.77109800
