 8

 O                 -2.94121400   -1.06528600   -0.00041600
 O                  1.43817400   -1.36406200   -0.78360400
 O                 -1.42846200    0.89937500    0.00006400
 O                  1.43797600   -1.36251300    0.78430000
 P                 -2.94305100    0.46662200   -0.00047700
Ca                  3.07173700   -0.02896900   -0.00053000
Ca                  0.37468700    2.44432200    0.00026000
Ca                 -0.64172400   -1.60832600    0.00049100
