 8

 O                 -0.74133600    1.28160100    0.92238000
 O                 -0.73875000   -1.28311200    0.92235500
 O                 -0.00059100    0.00000800   -1.71197700
 O                  1.48127500    0.00149200    0.92229900
 P                  0.00018200   -0.00001900    1.71808800
Ca                  0.97121000    1.68602300   -0.57040000
Ca                 -1.94620200   -0.00195800   -0.56976700
Ca                  0.97461600   -1.68404700   -0.57042100
