 8

 O                 -0.26011800    1.48682300    1.36396300
 O                  0.00067200   -0.00065500   -0.68786200
 O                 -1.15726000   -0.97637700    1.36130500
 O                  1.42492100   -0.52159600    1.35971000
 P                  0.00235600   -0.00344600    1.06474200
Ca                 -0.41843400    2.34276900   -0.71542100
Ca                 -1.82594700   -1.52761900   -0.71953200
Ca                  2.23932700   -0.80784400   -0.72245000
