 8

 O                  1.17857200    0.89718100    0.92200500
 O                  0.18658400   -1.46824600    0.92291900
 O                 -1.36561200    0.57387400    0.92186100
 O                  0.00020900   -0.00139100   -1.71185300
 P                 -0.00033800    0.00204900    1.71805200
Ca                 -1.54904900   -1.17832700   -0.56929900
Ca                  1.79459600   -0.75340300   -0.56922100
Ca                 -0.24519500    1.92962600   -0.57199300
