 8

 O                  1.38673800    0.52057800    0.92193100
 O                 -0.00021900   -0.00129700   -1.71186900
 O                 -1.14303500    0.94206700    0.92194500
 O                 -0.24325000   -1.45998200    0.92287400
 P                  0.00033800    0.00198300    1.71804200
Ca                  1.50232900   -1.23735100   -0.56929000
Ca                 -1.82235800   -0.68341700   -0.56928200
Ca                  0.31968100    1.91873400   -0.57191200
