 8

 O                 -0.58679500   -1.25383900   -0.10802900
 O                  2.69207000    0.00038100   -0.33318300
 O                 -2.23822800    0.00101700    1.33182900
 O                 -0.58738200    1.25343500   -0.11070400
 P                 -0.69114100    0.00108300    1.03412200
Ca                  1.62425800   -1.81812800   -0.07573700
Ca                 -2.44067200   -0.00139900   -0.93536700
Ca                  1.62290400    1.81831800   -0.07645300
