 8

 O                  0.27993600   -1.09111800   -0.20880000
 O                 -1.59296400    0.58479500   -0.52857700
 O                  2.30292100    0.89730800    1.02908000
 O                  2.68755200    0.83968900   -0.49171000
 P                 -1.20890100   -1.01903700   -0.80829500
Ca                 -3.58008100   -0.00694400    0.60294400
Ca                  2.47068000   -1.21278000    0.33629000
Ca                  0.54509800    1.49173300   -0.25301000
