 8

 O                 -0.67877900   -1.31518800    0.92294700
 O                 -0.00097900   -0.00049700   -1.71208300
 O                 -0.79930200    1.24649200    0.92194900
 O                  1.47954000    0.06944300    0.92189300
 P                  0.00075200    0.00080800    1.71791000
Ca                 -1.94426600   -0.09150600   -0.56929200
Ca                  0.89278600    1.72837600   -0.57093400
Ca                  1.05072400   -1.63757600   -0.57008900
