 8

 O                 -0.31149500    1.90429900   -0.00101600
 O                 -1.06143200   -0.24126500   -1.20004500
 O                 -2.92685800    1.02859600   -0.00169500
 O                 -1.06308800   -0.23863900    1.20158600
 P                 -1.39974200    0.82928200   -0.00041000
Ca                  1.09442500    0.00765300    0.00182600
Ca                 -2.85574900   -1.29075600   -0.00027100
Ca                  4.95628000   -0.32005500   -0.00077900
