 8

 O                 -0.94953700    0.40064200    0.83174500
 O                 -0.98492800   -1.42806100   -0.85525200
 O                  1.00804100   -1.42280700    0.85380100
 O                  0.95008600    0.41807100   -0.81982800
 P                  0.00620300   -0.61047700    0.00291100
Ca                  2.91627100   -0.54687500   -0.01227500
Ca                 -2.90570400   -0.57164300    0.00618200
Ca                 -0.02468400    2.38923800   -0.00027800
