 8

 O                 -1.73908800   -1.70827000   -0.00052100
 O                  2.04729600   -0.88897100   -0.78468300
 O                  2.04624700   -0.88720000    0.78574200
 O                 -2.25791700    0.77933300    0.00042900
 P                 -2.85637300   -0.64016200   -0.00160600
Ca                  0.46396300   -2.23965200    0.00115600
Ca                  2.52666300    1.17455100   -0.00140300
Ca                 -0.88696100    2.62726500    0.00106500
