 8

 O                  1.20577900    0.85900000    0.92311400
 O                  0.00059300   -0.00010800   -1.71190100
 O                 -1.34750000    0.61495800    0.92201200
 O                  0.14051200   -1.47411600    0.92224500
 P                 -0.00044400   -0.00039200    1.71820700
Ca                  1.77035500   -0.80811600   -0.56997200
Ca                 -0.18485500    1.93712000   -0.57015800
Ca                 -1.58492100   -1.12860300   -0.57071300
