 9

 O                  1.34137200    2.07988300    0.00000000
 P                  0.00000000    1.34125400    0.00000000
 O                 -1.18403900    2.43181900    0.00000000
 O                 -2.43200000    1.68067000    0.00000000
 O                 -1.61981800   -2.03490800    0.00000000
Ca                 -3.05499700   -0.48177500    0.00000000
Ca                  0.49792800   -2.44775600    0.00000000
 O                  2.24111100   -1.14145100    0.00000000
Ca                  3.21841800    0.71718500    0.00000000
