 9

 O                 -1.33389300   -2.04024800   -0.00021600
 O                 -2.59531000    0.16493500    0.00020800
 P                 -2.72728500   -1.36967900   -0.00028400
Ca                 -1.83156800    2.33627100    0.00011900
Ca                  1.84725000    1.77205200   -0.00025600
 O                  1.94321400   -0.25162000   -1.19604300
 O                  2.81516100   -0.47637600    0.00014300
 O                  1.94263400   -0.25119600    1.19618000
Ca                  0.92106000   -1.93926200    0.00024100
