 9

 O                 -2.05324600   -1.88058500    0.00000000
 O                 -2.40659700    0.50974000    0.00000000
 O                 -0.49248100    2.26603100    0.00000000
 O                  0.00000000    0.90533100    0.00000000
 P                 -1.27429400   -0.47680700    0.00000000
Ca                  1.26806200    3.58678700    0.00000000
 O                  0.25236800   -1.33583600    0.00000000
Ca                 -0.55034400   -3.44887100    0.00000000
Ca                  2.11798500    0.03381700    0.00000000
