 9

 O                  1.23712600   -1.28466300   -0.44389200
 O                 -2.06765400   -0.00074200    1.10410300
 O                 -0.60787500   -0.00379700    1.52234700
Ca                 -1.05361600    1.67254100   -0.13548300
 O                 -0.59109700    0.00266600   -1.65642200
 O                  1.23744200    1.28525100   -0.43917200
 P                  1.06424000    0.00204400   -1.53165100
Ca                  1.62700800   -0.00222200    1.38951600
Ca                 -1.05474800   -1.67133700   -0.14008100
