 9

 O                 -1.60596300   -1.76409900   -0.00018000
 O                  0.59860700    1.91157400   -0.00069100
Ca                  2.61800500    1.12671400    0.00053300
 O                  2.52484300   -0.99219500   -0.78543300
 O                  2.52326500   -0.99195200    0.78682600
Ca                  0.66996000   -1.92874500   -0.00101800
 P                 -3.00822100   -1.12083600    0.00078300
Ca                 -1.48804300    2.20985000   -0.00050200
 O                 -2.90014100    0.41869200    0.00047700
