 9

 O                 -3.41075000   -0.65321700   -0.01272200
 O                  0.82445300   -0.88089900    0.77937000
Ca                  3.07590900   -0.69393500   -0.00643400
 P                 -3.17050200    0.86703500   -0.00722200
Ca                 -1.22187500   -1.49243200    0.00761800
 O                 -1.61329800    1.04034600    0.01184200
 O                  2.87489800    1.41606100   -0.00342500
Ca                  0.72612900    1.51866700    0.00467000
 O                  0.81898000   -0.87873300   -0.77615900
