 9

 O                 -2.47894200    1.49010300    0.00000000
 P                 -1.42250300    0.40214100    0.00000000
 O                 -1.63797900   -1.10829100    0.00000000
Ca                 -0.32221700   -2.99486900    0.00000000
 O                  1.48440300   -1.88161000    0.00000000
 O                  2.99726400   -1.83700000    0.00000000
Ca                  2.20454600    0.22659500    0.00000000
Ca                 -0.96135100    3.37086300    0.00000000
 O                  0.00000000    1.07631100    0.00000000
