 9

 O                  0.00000000    0.68349200    0.00000000
 O                  1.47061600   -1.09373400    0.00000000
 O                 -0.28327500   -2.60502100    0.00000000
 P                 -0.12045200   -0.97241200    0.00000000
Ca                 -2.43542800   -2.87820300    0.00000000
 O                 -1.77370900   -0.78282400    0.00000000
Ca                 -0.34266700    2.89213000    0.00000000
Ca                  2.39373200    1.00134100    0.00000000
 O                  1.77312200    3.08318800    0.00000000
