 9

 O                 -0.49901700   -0.01523000   -1.70118100
Ca                  1.28344900   -1.23047900   -0.92198500
 O                  2.56163400    0.08267800    0.38894300
 O                  1.26081200    0.75686400    0.70056200
 P                  0.04688900   -0.05365000    1.76331900
 O                 -1.15848400    0.88008200    1.11681200
Ca                 -0.08260900    1.94601600   -0.70206700
 O                 -0.16831100   -1.44786300    0.92679700
Ca                 -2.03466100   -0.77791200   -0.27121100
