 9

 O                  0.63935900    0.41496700   -1.50115700
 O                  0.42214400    1.04677100    1.40322600
Ca                 -0.72640600    1.91548900   -0.33786300
 O                 -2.11392100    0.14301900   -0.06317600
 O                 -1.55190900   -1.01619800   -0.87864000
 P                  0.11850500   -1.14230500   -1.42571200
 O                  0.83666300   -1.60461700   -0.01058500
Ca                  2.16303000    0.23589000    0.31141200
Ca                 -0.81843700   -0.88822600    1.51586900
