 9

 O                 -3.25755300    0.52347900    0.00006700
 P                 -3.19793900   -1.02688600    0.00127000
 O                 -1.72194600   -1.46768300   -0.00026600
Ca                  0.60439200   -1.30804000   -0.00119900
 O                  2.71815200   -1.08492800    0.78518900
 O                  0.56740400    1.10475000   -0.00040600
 O                  2.71916500   -1.08466700   -0.78468800
Ca                  2.82047700    0.99770200    0.00092900
Ca                 -1.43650500    1.88412200   -0.00064100
