 9

 O                  0.21333900   -2.65056800    0.00000000
 P                 -0.69157200   -1.41944500    0.00000000
 O                 -2.26395000   -1.78686500    0.00000000
 O                 -2.92365300   -0.46784500    0.00000000
 O                 -0.05120200    2.70075800    0.00000000
 O                  0.00000000    1.14918700    0.00000000
Ca                 -2.12841000    1.65350600    0.00000000
Ca                  2.11050600    1.84156600    0.00000000
Ca                  2.54677000   -2.00835500    0.00000000
