 9

 O                  2.56272800    0.08142400    0.38941500
 O                  1.26110400    0.75440800    0.70041200
 P                  0.04775900   -0.05872100    1.76291400
Ca                  1.28351100   -1.22693600   -0.92539700
 O                 -0.16811200   -1.45071800    0.92303800
Ca                 -2.03475000   -0.77765500   -0.27241500
 O                 -0.50000300   -0.01052100   -1.70107900
Ca                 -0.08370300    1.94811200   -0.69703200
 O                 -1.15791000    0.87670700    1.11986200
