 9

 O                  2.33326300    0.07291900   -1.25875700
 O                  2.33560900    0.08310800    1.26108900
 P                  2.11111700   -0.72417200    0.00481700
 O                  1.41517700   -2.05300500    0.00953100
Ca                 -0.96185500   -1.57115600   -0.00733300
 O                 -3.06047800   -1.08206000    0.00020800
Ca                 -2.87698300    1.02893600    0.00568800
 O                 -0.60415400    0.85193200   -0.00255800
Ca                  1.28773200    1.93619200   -0.00577300
