 9

 O                  2.05936100    0.00006000   -0.10175500
 O                  1.62858400   -0.00073100    1.36493200
 O                 -0.66767800    1.25610400    0.97979700
 P                 -0.01872200   -0.00095200    1.84238900
Ca                  0.72096400    1.68601800   -0.84412200
 O                 -0.66770900   -1.25710700    0.97849700
 O                 -0.51152900    0.00089300   -1.75464300
Ca                  0.72097600   -1.68513300   -0.84582500
Ca                 -2.16431000    0.00014100   -0.27857600
