 9

 O                  1.03421700    0.12721200   -1.34573400
 P                  2.49077600   -0.05934400   -0.62392500
 O                  2.42659600   -1.51466200   -0.05888100
 O                  2.08391200    1.00143600    0.79552700
 O                  0.88954600    0.46183700    1.53442000
Ca                 -0.08455300    1.68018100   -0.09803100
 O                 -1.72187900   -0.00659000    0.01775200
Ca                 -3.83041100   -0.23449800   -0.13618200
Ca                  0.16192500   -1.42886800    0.32492400
