 9

 O                 -3.13176700   -0.53450500    0.77136000
 O                 -3.13894400   -0.53603200   -0.76153800
 P                 -2.84948600    1.02031800    0.00193800
 O                 -1.29652200    1.09295900   -0.00581400
Ca                 -0.99683100   -1.48176000   -0.00381600
Ca                  1.08078700    1.42748100   -0.00172000
Ca                  3.34908400   -0.85120400    0.00222600
 O                  1.09385100   -0.94772100   -0.00119900
 O                  3.23356900    1.27591200    0.00183200
