 9

 O                 -2.06808700   -0.00003100    1.10456800
 O                 -0.59054900    0.00002300   -1.65698700
 O                  1.23733500   -1.28474500   -0.44142000
 P                  1.06506400    0.00003200   -1.53113500
Ca                 -1.05442800   -1.67123500   -0.13825100
 O                  1.23731300    1.28477600   -0.44137100
Ca                 -1.05445300    1.67123000   -0.13819900
Ca                  1.62688400   -0.00001400    1.38984500
 O                 -0.60801300   -0.00003500    1.52260100
