 9

 O                  1.61324300    1.03999100    0.00629300
 O                 -2.87489600    1.41605700   -0.00255200
Ca                 -0.72610700    1.51910500    0.00466500
Ca                 -3.07585100   -0.69392400   -0.00547700
 P                  3.17076100    0.86697100   -0.00597500
 O                  3.41113900   -0.65319500   -0.00798200
 O                 -0.81976500   -0.87916200   -0.77621000
 O                 -0.82410100   -0.88105900    0.77932200
Ca                  1.22163900   -1.49246200    0.00574500
