 9

 O                 -1.93120500    0.72407700   -0.29476100
 P                 -1.43462000   -0.52007500    1.03337200
Ca                 -3.58451400   -0.72324300   -0.51884700
Ca                  1.35573500   -1.27143800    0.25581300
 O                  3.29103300   -0.78404600   -1.04471700
 O                  3.63885000   -0.59325100    0.17441100
 O                  1.95930800    0.97877800    0.47948400
 O                  1.57946700    0.75172900   -0.89221400
Ca                 -0.11023700    1.95382100    0.11912400
