 9

 O                  1.02831600   -1.62539500    0.00000000
 O                  3.45826000   -1.20762400    0.00000000
 O                 -3.42596200   -0.76168300    0.00000000
 O                 -2.96918300    0.66659500    0.00000000
 P                  2.42130700   -2.34511400    0.00000000
Ca                 -1.20881100   -0.76877600    0.00000000
 O                  0.00000000    1.34481700    0.00000000
Ca                  2.06772600    0.69162500    0.00000000
Ca                 -1.91146800    2.46930300    0.00000000
