 9

 O                 -0.52178600   -0.16944400    1.30364100
 O                 -2.81206000    0.81930600   -0.55379300
 P                  0.57468400   -0.60082200    0.28056900
 O                  1.95367400   -1.09844700    0.82887200
 O                 -0.07287700   -1.56380300   -0.73440900
Ca                 -2.31887600   -1.23206200   -0.17719500
Ca                 -1.11688600    1.88176400    0.17615100
Ca                  3.18331400    0.27234900   -0.36951800
 O                  1.00663800    0.83380000   -0.44397300
