 9

 O                  2.07945000    1.33569100   -0.91037700
 O                 -1.51742400    0.00052800    0.88419500
 O                 -1.17765800   -0.00111300   -0.63793000
Ca                  0.18727400    1.70289300    0.34435700
Ca                 -3.45301000   -0.00062000   -0.37062400
 P                  2.49552000    0.00069800   -0.19716800
 O                  2.08193100   -1.33599100   -0.90842600
 O                  1.54694300    0.00080700    1.14688800
Ca                  0.18879900   -1.70276600    0.34440300
