 9

 O                 -3.09158400   -0.10729900    0.00483700
 P                 -2.90347300   -1.68192000    0.00065000
Ca                  0.19728300   -1.18738100   -0.00622900
 O                  2.16227200   -0.75976300    1.20250100
 O                  2.99472700   -1.07686800    0.00903500
 O                  2.17538000   -0.76491500   -1.19485700
Ca                  2.28352400    1.20548100    0.00007000
 O                  0.03335100    1.20054800   -0.01052200
Ca                 -2.01286000    1.84665900    0.00127400
