 9

 O                 -1.23811800    1.28439100   -0.44021300
 P                 -1.06454900    0.00032900   -1.53138400
Ca                 -1.62630700   -0.00240900    1.38981200
 O                  0.59074200    0.00205300   -1.65711200
 O                  2.06734700    0.00113600    1.10442500
 O                  0.60778200   -0.00117100    1.52332900
Ca                  1.05209100    1.67262800   -0.13697800
Ca                  1.05591200   -1.67071700   -0.13941400
 O                 -1.23596200   -1.28578000   -0.44263400
