 9

 O                 -0.69415700   -2.00805200    0.78459200
 O                 -0.69422200   -2.00796900   -0.78464900
 O                 -1.89695000    1.36821600    0.78572200
 O                 -1.89705800    1.36820600   -0.78563200
Ca                 -2.39118800   -0.71570300    0.00008500
 P                  3.29719400    0.48794500    0.00015400
Ca                  1.36210200   -1.71895700   -0.00009200
 O                  1.70399000    0.74010800   -0.00008800
Ca                 -0.05245200    2.28449800   -0.00008700
