 9

 O                 -1.28626600   -1.86012100    0.78330200
 O                 -1.28711900   -1.86034200   -0.78278000
Ca                  0.75321800   -2.21710100   -0.00077200
 P                  3.08634400    0.00001700    0.00152100
 O                  1.47568900    0.00000800   -0.00155800
Ca                  0.75319100    2.21711000   -0.00077300
 O                 -1.28628700    1.86010500    0.78330400
 O                 -1.28714400    1.86033200   -0.78277700
Ca                 -2.35271700   -0.00001300    0.00060800
