 9

 O                  1.23687500    1.28650400   -0.43793800
 O                 -0.59163600    0.00495700   -1.65601200
 O                 -0.60679200   -0.00631400    1.52085000
 O                 -2.06747400   -0.00269000    1.10565100
Ca                 -1.05430600   -1.67128300   -0.14231100
 O                  1.23733300   -1.28366400   -0.44573500
 P                  1.06397600    0.00478000   -1.53141300
Ca                 -1.05458400    1.67205000   -0.13287400
Ca                  1.62758600   -0.00386800    1.38901800
