 9

 O                 -2.57207600   -1.03090200   -0.76450800
 O                 -2.57083600   -1.02793200    0.76884800
 P                 -2.85773000    0.51415500   -0.00047100
 O                 -1.43634300    1.15107000   -0.00220400
Ca                 -0.20134500   -1.10859700   -0.00173200
Ca                  0.78445800    1.73170600    0.00073700
 O                  1.40929200   -0.03249000    1.34696300
 O                  1.41079700   -0.03109000   -1.34723100
Ca                  3.06385200   -0.62018800    0.00060200
