 9

 O                  0.64067200    0.41560200   -1.50088300
 P                  0.11831900   -1.14143400   -1.42627800
 O                 -1.55220600   -1.01437500   -0.88046500
 O                 -2.11386200    0.14439800   -0.06382000
Ca                 -0.81989700   -0.88877200    1.51532200
 O                  0.83535100   -1.60490300   -0.01097400
 O                  0.42229800    1.04532400    1.40390300
Ca                  2.16315300    0.23437900    0.31217600
Ca                 -0.72489700    1.91605000   -0.33689400
