 9

 O                 -1.23738400    1.28525600   -0.44093200
 O                 -1.23757600   -1.28490800   -0.44182000
 O                  0.60765000   -0.00043900    1.52193800
 O                  2.06753100   -0.00019500    1.10403800
Ca                  1.05444200   -1.67187900   -0.13854600
 O                  0.59066900    0.00051600   -1.65619600
 P                 -1.06472300    0.00050100   -1.53103100
Ca                  1.05422800    1.67195900   -0.13756000
Ca                 -1.62648300   -0.00054900    1.38956800
