 9

 O                  0.67386200   -0.00125800    1.47174800
 O                 -2.07217200   -0.00216900    1.39688500
 P                 -0.68033900   -0.00105500    0.73508800
Ca                  1.63837000   -1.69411000   -0.11471000
 O                  2.64239400    0.00112400   -0.93450800
 O                 -0.70761800    1.25434900   -0.28841900
Ca                 -2.69727300    0.00074900   -0.86512400
Ca                  1.63722400    1.69494200   -0.11331000
 O                 -0.70663400   -1.25402100   -0.29113600
