 9

 O                  1.14364300   -0.84366200   -0.00158000
 O                  2.66462400    0.71126700   -1.24778400
 P                  1.71992100    0.73557700    0.00043900
 O                  2.66244100    0.70888600    1.25028300
Ca                  3.54214600   -1.04552300    0.00054000
 O                  0.46346000    1.62683700    0.00027200
Ca                 -1.03791800   -0.10190500   -0.00246200
 O                 -3.22587400   -0.34984900   -0.00005300
Ca                 -5.27748600   -0.14564600    0.00113800
