 9

Ca                  2.52963500   -0.92820700   -0.15320600
 O                  2.52288500    1.16258600   -0.53176600
Ca                  0.62367700    1.89830000    0.14629000
 O                  0.50537700   -0.27085200    1.33910200
 P                 -0.44533900   -1.13540100    0.45787500
 O                  0.41576700   -2.00486200   -0.48390400
 O                 -1.01009600    0.28751200   -0.79195800
 O                 -1.70650900    1.37921700    0.02136500
Ca                 -3.11027800   -0.33998300   -0.15762600
