 9

 O                 -1.31971500   -0.94237200   -0.22004600
 P                 -1.73320800    0.67863600   -0.92320200
Ca                 -3.42695500   -0.79436900    0.53708500
Ca                  0.92746100   -1.24215400   -0.39368200
 O                  2.96463300   -1.33095900    0.85301900
 O                  3.31521800   -1.11743400   -0.35989600
 O                  1.97381000    0.82179100   -0.43676900
 O                  1.62753200    0.53505200    0.93732200
Ca                  0.37480800    2.34111500    0.23954700
