 9

 O                  0.75614200   -1.24962700   -0.03353700
 O                  0.75868900    1.25036800   -0.03630800
 P                  0.97235600    0.00138700    1.11032000
 O                  2.54264000    0.00003100    1.24529100
Ca                  2.53429700   -0.00216400   -1.02132200
Ca                 -1.43963400    1.80079300   -0.04458300
 O                 -2.63280500    0.00112100    0.53164100
 O                 -2.37871100    0.00045100   -1.01553800
Ca                 -1.44231100   -1.80060700   -0.04345500
