 9

 O                  1.31239900    0.20211800    0.00000000
 O                 -1.30943000    0.20456900    0.00000000
 O                  0.10925200   -2.80755600    0.00000000
 O                 -0.89082300   -3.94536900    0.00000000
Ca                 -1.96313600   -2.02478000    0.00000000
 P                  0.00000000    0.98317800    0.00000000
Ca                  2.06869200   -1.97500200    0.00000000
Ca                  0.20510400    4.80167800    0.00000000
 O                  0.00195300    2.49804000    0.00000000
