 9

Ca                 -4.95989100   -0.14793100    0.10070500
Ca                 -1.08831700   -0.16927700   -0.03766300
 O                  0.65528200   -1.66186800   -0.51408900
 O                  1.03375700   -0.32668600   -1.15446100
 P                  1.33469100    1.12364600    0.04783000
 O                  0.17787300    2.00190600   -0.36229100
 O                  2.83083700    1.26043800   -0.17945200
Ca                  2.75315000   -1.14700000    0.25480000
 O                  1.03735000    0.27989400    1.32600800
