 9

 O                  1.68715200   -1.04076500   -0.00036100
 O                 -2.78752300   -1.05487400    0.78478000
 O                 -2.78797900   -1.05480500   -0.78440700
Ca                 -2.87063400    1.03810400    0.00031500
 O                 -0.62466700    1.10510900    0.00010900
Ca                 -0.67988500   -1.27820800   -0.00044400
 P                  3.25030000   -0.96628900    0.00042900
 O                  3.59133500    0.53455800    0.00054300
Ca                  1.48146700    1.56913100   -0.00045900
