 9

 O                 -0.75868900    1.25031100   -0.03393700
 O                 -0.75602500   -1.24970400   -0.03482400
 P                 -0.97304800   -0.00041700    1.11080300
 O                 -2.54343500   -0.00219300    1.24458600
Ca                 -2.53345500   -0.00025400   -1.02194800
Ca                  1.44216100   -1.80055200   -0.04418700
 O                  2.63288700    0.00088900    0.53149900
 O                  2.37836500    0.00096900   -1.01562200
Ca                  1.43983900    1.80101100   -0.04364900
