 9

Ca                  0.72772300    1.51868700    0.00878900
 O                  2.87665300    1.41467300   -0.00354300
Ca                  3.07514500   -0.69565100   -0.00943200
 P                 -3.17000200    0.86732400   -0.00976700
 O                 -3.41080200   -0.65311000   -0.01106600
 O                 -1.61289300    1.04064900    0.00560100
 O                  0.82411800   -0.87886200    0.78004100
 O                  0.81674200   -0.87673800   -0.77534800
Ca                 -1.22289400   -1.49217500    0.00969400
