 9

 O                 -1.53057900   -1.30728300    0.00128900
 O                  2.96101800   -1.63643300   -0.00510400
Ca                  0.80296300   -1.47537800    0.00913200
 P                 -2.78599400   -0.45938300   -0.00323400
 O                 -4.15697800   -0.98918100   -0.00863700
 O                 -2.48209300    1.03941100   -0.00142200
 O                  1.19951900    0.90710700    0.00528300
Ca                  3.42298600    0.43166500   -0.00690300
Ca                 -0.53280900    2.18280300    0.00363300
