 9

 O                  1.68717100   -1.04077700   -0.00038700
 O                 -2.78801600   -1.05479300   -0.78438100
 O                 -2.78749900   -1.05487300    0.78480500
Ca                 -2.87063500    1.03811200    0.00035400
 O                 -0.62466700    1.10509600    0.00010600
Ca                 -0.67989400   -1.27821800   -0.00050300
 P                  3.25031700   -0.96627700    0.00048200
 O                  3.59132500    0.53457700    0.00058900
Ca                  1.48146600    1.56912200   -0.00050500
