 9

 O                 -0.07271000   -1.56355400   -0.73455300
 P                  0.57468300   -0.60070000    0.28070500
 O                  1.95364900   -1.09836300    0.82903600
 O                 -0.52181700   -0.16954200    1.30381100
 O                 -2.81187800    0.81914100   -0.55396000
Ca                 -2.31889500   -1.23222800   -0.17724800
Ca                 -1.11697000    1.88186900    0.17613400
Ca                  3.18330800    0.27218700   -0.36966600
 O                  1.00661600    0.83406200   -0.44370800
