 9

Ca                 -2.92932500    0.40403100   -0.15852000
 O                 -2.26242700   -1.69951900    0.02990700
 O                 -1.27455800   -1.03032000    0.98103600
 O                  0.62518900   -1.44575900   -0.86654700
 P                 -0.04927000   -0.44467700    0.06357200
Ca                  2.80587300   -1.09515800   -0.12136700
 O                  1.06310800    0.13254600    1.01916600
Ca                  1.18112000    2.30299900    0.01331300
 O                 -0.70310100    0.84714000   -0.61632500
