 9

 O                  2.53259500    0.34060300    0.98075500
 O                  0.56817400    1.29002900   -0.24751000
 P                  1.01626400    0.64092400    1.22840600
Ca                 -1.65028900    1.88516300   -0.27319100
Ca                  2.15113100   -0.23010500   -1.16333800
 O                  0.29670800   -1.00117500    0.97021800
 O                  0.53412300   -1.67126000   -0.39369500
Ca                 -1.73719600   -1.74985000    0.12208700
 O                 -2.74621000    0.07704900   -0.32692400
