 9

 O                  6.26956200    0.01181800   -0.00160600
 P                  4.79663700    0.00480600   -0.00031600
 O                  3.91571000   -1.24184500   -0.00071700
 O                  3.90349500    1.24320700   -0.00065400
Ca                  1.85304300   -0.00842400    0.00090600
 O                 -0.29053800   -0.00736800    0.00202100
Ca                 -2.42454000   -0.00299400    0.00095200
 O                 -4.62529500    0.00151800   -0.00015100
Ca                 -6.69515500    0.00488100   -0.00117900
