 9

Ca                 -1.06079000   -1.66876300   -0.14488100
 O                 -0.60641800   -0.00433300    1.52069900
 O                 -2.06686300    0.00144600    1.10605000
 O                  1.23287600   -1.28628100   -0.44768300
 O                  1.24153400    1.28393100   -0.43592600
 P                  1.06393900    0.00406200   -1.53119800
 O                 -0.59159200    0.00962900   -1.65547500
Ca                 -1.04785200    1.67544900   -0.13085200
Ca                  1.62687400   -0.01148900    1.38906500
