 9

Ca                  0.10869500   -1.69682600   -0.41487700
 O                  2.10593900    1.24248500    0.99917600
 P                  2.47443000   -0.17210700    0.38828500
 O                  1.65299000   -0.11564600   -1.07962100
Ca                  0.55313900    1.80868700   -0.52807200
 O                  1.76457700   -1.38589300    1.10674500
 O                 -1.93599500   -0.69115700   -0.82669900
 O                 -1.25432200    0.39521700    0.04662400
Ca                 -3.45093300    0.23921800    0.55324500
