 9

 O                  4.30875700    1.24455400   -0.00070700
 P                  5.23709500    0.00460300   -0.00008900
 O                  4.31632800   -1.24109900    0.00022500
Ca                  2.28547100   -0.00460500   -0.00001100
 O                  0.16024300   -0.00313000    0.78605500
 O                  0.16008000   -0.00460600   -0.78566600
Ca                 -1.93640900    0.00168200    0.00042100
 O                 -4.13538600    0.00161400    0.00005900
Ca                 -6.20089200    0.00053700   -0.00032900
