 9

 O                  3.41090600   -0.65331200   -0.00003300
 O                 -2.87499300    1.41592100   -0.00024300
Ca                 -3.07584100   -0.69416600   -0.00037700
 O                 -0.82179700   -0.87967000    0.77772300
 O                 -0.82139500   -0.87952700   -0.77762200
Ca                  1.22169500   -1.49250600    0.00032700
 P                  3.17068100    0.86697200   -0.00059600
Ca                 -0.72627700    1.51898000    0.00048400
 O                  1.61331000    1.04024600    0.00020800
