 9

 O                 -2.47508200    1.03740300   -0.00089400
 O                  1.20043100    0.90777600    0.00603100
Ca                 -0.52986200    2.18649200    0.00436000
 P                 -2.78570600   -0.46003000   -0.00383100
 O                 -4.15929400   -0.98299800   -0.01120700
 O                 -1.53445700   -1.31402900    0.00163500
Ca                  0.79987700   -1.47256400    0.01112000
 O                  2.95756900   -1.63962400   -0.00578900
Ca                  3.42359700    0.42768300   -0.00851800
