 9

 O                  3.41079400   -0.65321300   -0.00242300
 O                 -0.82208800   -0.87987300    0.77800400
Ca                  1.22180500   -1.49252500    0.00139100
 P                  3.17051100    0.86703600   -0.00127200
 O                  1.61313000    1.04032500    0.00248100
 O                 -0.82120900   -0.87977100   -0.77753700
Ca                 -0.72615100    1.51891200    0.00064200
 O                 -2.87491700    1.41593800   -0.00051700
Ca                 -3.07582100   -0.69402600   -0.00108300
