 9

 O                 -2.52392200    1.16319300   -0.53061800
Ca                 -2.52952000   -0.92756000   -0.15214800
 O                 -0.50664200   -0.27287600    1.33774900
 P                  0.44465400   -1.13676700    0.45681000
 O                 -0.41622300   -2.00466500   -0.48663700
Ca                  3.11027100   -0.34034000   -0.15727900
 O                  1.01171800    0.29005500   -0.79126800
 O                  1.70808600    1.37980400    0.02498100
Ca                 -0.62344800    1.89827100    0.14513700
