 9

 O                  2.70721100   -1.09163900    0.78502400
 O                  2.70735600   -1.09208000   -0.78487700
 O                 -1.73037000   -1.51308300    0.00119000
 P                 -3.19160700   -1.03039900   -0.00016500
 O                 -3.21411500    0.52177600   -0.00065600
Ca                  0.59173500   -1.30853200   -0.00027400
 O                  0.56294700    1.10701200   -0.00010200
Ca                  2.81645400    0.98945300   -0.00002500
Ca                 -1.42769600    1.91908500    0.00019100
