 9

 O                  0.75637000   -1.24957900   -0.03381600
 O                  0.75845700    1.25040600   -0.03563700
 P                  0.97260900    0.00107200    1.11045800
 O                  2.54291400   -0.00015600    1.24509500
Ca                  2.53401200   -0.00166700   -1.02155600
Ca                 -1.43996600    1.80074700   -0.04435800
 O                 -2.37838300    0.00033500   -1.01571400
 O                 -2.63305900    0.00086500    0.53136900
Ca                 -1.44202200   -1.80063200   -0.04344800
