 9

 O                  1.61329200    1.04074500    0.01111100
 O                 -2.87489000    1.41595500   -0.00327500
Ca                 -0.72611900    1.51885900    0.00425800
 P                  3.17059400    0.86685000   -0.00670600
 O                  3.41074100   -0.65339900   -0.01158900
 O                 -0.81923700   -0.87893700   -0.77636600
 O                 -0.82419400   -0.88077800    0.77927600
Ca                 -3.07589500   -0.69400400   -0.00583000
Ca                  1.22178400   -1.49242700    0.00693900
