 9

Ca                 -1.82273800    2.40092400   -0.00220600
 O                 -1.38558300   -2.18071600    0.00029500
 P                 -2.68377600   -1.34319600    0.00606900
 O                 -2.33904500    0.16050000   -0.00628300
Ca                  0.86995900   -1.94941700   -0.00440000
 O                  1.88991200   -0.26038900    1.19602100
 O                  1.89552100   -0.25685400   -1.19512400
 O                  2.76353600   -0.49115600    0.00216000
Ca                  1.83587500    1.76733600    0.00322600
