 9

 O                 -2.00102100    1.61719400    0.47111400
 O                 -1.72483500    0.98153700   -0.90573000
 P                 -2.76253500   -0.00017400    0.00032500
 O                 -1.72419700   -0.98171000    0.90588800
 O                 -2.00117800   -1.61735700   -0.47080900
Ca                  0.37204800    1.88889700    0.02669700
 O                  1.49828500    0.00020900   -0.00039100
Ca                  3.70870800   -0.00004000    0.00033200
Ca                  0.37232400   -1.88867500   -0.02730200
