 9

 O                  1.61293100    1.04047500    0.00140900
 P                  3.17029500    0.86689200   -0.00066700
Ca                  1.22147000   -1.49296800    0.00108300
 O                  3.41040300   -0.65331700   -0.00195500
 O                 -0.82148700   -0.87972100   -0.77772700
 O                 -0.82194600   -0.87963400    0.77780200
Ca                 -3.07516100   -0.69440100   -0.00069500
 O                 -2.87478800    1.41560200   -0.00031300
Ca                 -0.72607500    1.51983800    0.00042600
