 9

 O                 -1.94436700   -1.25879800    0.45886600
 O                 -3.01297000   -0.40097300    1.13110500
 P                 -0.41583700   -0.53024700    0.71666000
Ca                 -2.78409900    0.36237400   -0.91905300
Ca                  1.27771600    1.98789000    0.30128800
 O                 -0.64902400    0.84539700   -0.28557900
 O                  2.96631400    0.76237800   -0.08051900
Ca                  2.68695000   -1.32475200   -0.35473900
 O                  0.46832600   -1.51757200   -0.13634900
