 9

 O                  2.60366600    0.37605500    0.00008800
 O                 -0.65377900    2.44869300   -0.00023800
Ca                 -2.41476700    1.20770300   -0.00011200
 O                 -2.26373800   -0.92377100    0.78670300
 O                 -2.26407800   -0.92400100   -0.78630400
Ca                 -0.73353900   -2.31744800    0.00006100
 O                  1.50766200   -1.92395200   -0.00033200
 P                  2.84083000   -1.14694100   -0.00004400
Ca                  1.44579100    2.34874100    0.00011800
