 9

 O                 -0.98335000    1.56203900   -0.00000800
 O                 -1.10684000   -1.86817500   -0.00039400
Ca                 -3.16155100   -1.43195500   -0.00017400
 P                 -2.44446700    2.02809600    0.00009600
 O                 -3.44102500    0.83886900    0.00010000
Ca                  0.45135900   -0.34180100   -0.00029100
 O                  2.64159000   -0.06472200    0.78952000
 O                  2.64184100   -0.06449000   -0.78932900
Ca                  4.64265600    0.09127500    0.00043700
