 9

 O                  1.71634900   -1.43551500    0.00016400
 O                 -0.57079500    1.10405800   -0.00013200
Ca                 -2.82387600    1.00250300   -0.00005500
 O                 -2.72603500   -1.08077600    0.78494900
 O                 -2.72613200   -1.08088400   -0.78479100
Ca                 -0.61240900   -1.30622300   -0.00001800
 P                  3.20208700   -1.02439700   -0.00008600
Ca                  1.44259700    1.85969800    0.00008900
 O                  3.28692000    0.52391900   -0.00006700
