 9

 O                  1.72210600    1.27690600    0.00000600
 O                  4.01271400   -0.00114600    0.00003100
 O                  1.72129200   -1.27773600    0.00001800
 P                  2.54044800   -0.00067300    0.00002300
Ca                 -0.08825800    2.67115700   -0.00003700
 O                 -2.03957200    1.89594600   -0.00000200
Ca                 -3.07719400    0.00071200    0.00003900
 O                 -2.04125800   -1.89542900   -0.00000100
Ca                 -0.08999700   -2.67078000   -0.00004000
