 9

 O                 -2.71487500   -1.08951400   -0.78075500
 O                 -2.70422500   -1.09162500    0.78896400
Ca                 -0.59430100   -1.30805600   -0.01042400
 O                 -0.56367800    1.10679000   -0.00723900
 O                  3.22257800    0.52197100    0.00655400
 P                  3.19283000   -1.02994800    0.00758700
 O                  1.72872700   -1.50461600   -0.00130000
Ca                 -2.81742700    0.99095600    0.00734700
Ca                  1.42969500    1.91235800   -0.00510200
