 9

 O                 -2.46288000   -1.61054700    0.06577500
 O                 -1.40140400    0.24205400   -1.27315700
 P                 -2.54560100   -0.06218100   -0.14580800
 O                 -1.39292000    0.30902000    1.25740900
 O                 -0.97714800    1.69929400    1.39268800
Ca                  0.18539300    1.68151600   -0.53085800
 O                  1.64458900   -0.11176800   -0.24581000
Ca                  3.73999800   -0.33271700    0.15481000
Ca                 -0.18028500   -1.51338400    0.00664200
