 9

 O                 -0.71766200   -1.09998800    1.20044000
 O                 -2.18476600   -0.90557800    1.42653200
 O                 -0.75587400    1.15143000   -0.06048500
 P                 -0.36604300   -0.39794500   -0.21423300
 O                  1.19132600   -0.43657300   -0.33070200
 O                 -1.25824400   -0.93645200   -1.33313300
Ca                 -3.03288700    0.19761600   -0.32835200
Ca                  1.41381300    1.97363900    0.21730700
Ca                  3.38369300   -0.98193200   -0.08934100
