 9

Ca                 -2.82341400    1.00218300   -0.00119000
 O                 -2.72581700   -1.08041800    0.78526500
 O                 -2.72507000   -1.08160500   -0.78445000
 O                 -0.57045000    1.10401000    0.00008000
Ca                 -0.61176200   -1.30673400    0.00110700
 O                  1.71692600   -1.43854000   -0.00121000
 P                  3.20173800   -1.02453700   -0.00063400
 O                  3.28420900    0.52401500   -0.00023800
Ca                  1.44195400    1.86196800    0.00077900
