 9

 O                 -0.42131900    1.04361200    1.40499100
 O                  1.55133800   -1.01402800   -0.88073700
 O                  2.11453500    0.14360700   -0.06312000
Ca                  0.81977700   -0.89092300    1.51388100
 O                 -0.83693400   -1.60435800   -0.01342900
 P                 -0.11920900   -1.13950000   -1.42746900
Ca                 -2.16296900    0.23506000    0.31327600
 O                 -0.64089800    0.41808100   -1.50043700
Ca                  0.72590900    1.91572300   -0.33546200
