 9

 O                  3.41044400   -0.65314300   -0.01723500
 O                 -0.82544100   -0.88149500    0.78012100
Ca                  1.22204600   -1.49287600    0.01078200
 P                  3.17026300    0.86726300   -0.01020400
 O                  1.61306600    1.04131000    0.01501600
 O                 -0.81747300   -0.87828300   -0.77560700
Ca                 -3.07521200   -0.69440900   -0.00926700
 O                 -2.87539900    1.41587500   -0.00484500
Ca                 -0.72661000    1.51913200    0.00715700
