 9

 O                 -0.60758700   -0.00120000    1.52244200
Ca                  1.62673200   -0.00066200    1.38944200
 O                  1.23686300    1.28568600   -0.44050500
 P                  1.06456100    0.00140700   -1.53119100
 O                  1.23748400   -1.28448200   -0.44236100
 O                 -0.59079400    0.00110200   -1.65651500
Ca                 -1.05484600    1.67171200   -0.13685700
 O                 -2.06737300   -0.00150200    1.10441400
Ca                 -1.05374300   -1.67194600   -0.13918200
