 9

 O                 -3.41103800   -0.65340700   -0.00025000
 O                 -1.61312000    1.04071400    0.00045300
 P                 -3.17061000    0.86684700   -0.00033000
Ca                  3.07586100   -0.69413200   -0.00019300
 O                  2.87500100    1.41586600   -0.00029600
Ca                  0.72626200    1.51898400    0.00022700
 O                  0.82176900   -0.88000100    0.77790800
 O                  0.82163300   -0.87988300   -0.77766200
Ca                 -1.22186300   -1.49230300    0.00015300
