 9

 O                 -1.68711000   -1.04167600   -0.01927900
 O                  0.62458100    1.10524600   -0.00524600
 P                 -3.24986400   -0.96635400    0.01279700
 O                 -3.59037200    0.53459900    0.02246300
 O                  2.78162500   -1.05680600    0.78991500
 O                  2.79322600   -1.05299700   -0.77923500
Ca                  2.87041900    1.03800800    0.01091100
Ca                  0.67957800   -1.27822600   -0.01079300
Ca                 -1.48137900    1.56963600   -0.01316400
