 9

 O                 -3.12810600   -0.53384300    0.77578100
 O                 -3.14187400   -0.53673300   -0.75712100
Ca                 -0.99673300   -1.48203400   -0.00702000
 O                  1.09386300   -0.94769400   -0.00312600
Ca                  3.34916800   -0.85099000    0.00424700
 P                 -2.84948900    1.02028700    0.00375200
 O                 -1.29664900    1.09333600   -0.01089300
 O                  3.23325400    1.27610300    0.00435000
Ca                  1.08048700    1.42734100   -0.00363800
