 9

 O                 -0.17085000   -1.66759100   -0.45055600
 O                 -1.17002800   -1.07523900   -1.37625400
 O                 -2.20351700   -0.42588100   -0.55243300
Ca                 -1.12313000   -0.84829800    1.50453000
 P                  1.23247000    1.25862600    1.06486400
 O                 -0.42629600    1.30781000    1.14939900
Ca                  2.07897600   -1.12416000   -0.42641200
 O                  1.38472000    1.06575200   -0.61100500
Ca                 -0.84581100    1.34654800   -1.14042600
