 9

 O                  0.01771700   -1.28027200    1.19475100
 O                 -0.22023800   -0.00112400   -1.48114300
Ca                  0.99863100    1.75981400   -0.85726000
Ca                  1.02510400   -1.74578100   -0.86435800
 P                  0.92495600    0.00126700    1.54490500
 O                  2.04472300    0.01187300    0.36217100
 O                 -0.00012600    1.27129500    1.20039800
Ca                 -1.85055100   -0.01494500    0.20644700
 O                 -4.00932900   -0.00186700   -0.38494700
