 9

 O                 -0.49853200   -0.01219300   -1.70130500
Ca                  1.28485900   -1.22783700   -0.92416500
 O                  2.56139200    0.08288900    0.39087900
 O                  1.25991000    0.75606000    0.70140900
 P                  0.04648100   -0.05689900    1.76325700
 O                 -1.15933700    0.87742700    1.11801500
Ca                 -0.08404900    1.94782500   -0.69899700
 O                 -0.16785800   -1.44991400    0.92438300
Ca                 -2.03390100   -0.77902100   -0.27263300
