 9

 O                  2.60130500    0.38021200    0.00044500
 P                  2.84284800   -1.14200600    0.00065500
 O                  1.51191800   -1.92277000   -0.00125100
Ca                 -0.72873000   -2.31856700   -0.00112300
 O                 -2.26443500   -0.92882300   -0.78421500
 O                 -2.25845500   -0.92638300    0.78882100
Ca                 -2.41722800    1.20362300   -0.00002600
 O                 -0.65857300    2.44792900   -0.00183800
Ca                  1.44111700    2.35138200   -0.00012700
