 9

 O                 -3.14785400   -2.40896900    0.00000000
 O                 -3.15284700   -4.92367700    0.00000000
 O                 -4.00630500   -1.15961800    0.00000000
 P                 -4.10207200   -3.77568300    0.00000000
Ca                 -1.84083700   -0.46188400    0.00000000
 O                  0.00000000    0.64919300    0.00000000
Ca                  1.86244600    1.68987900    0.00000000
 O                  3.80927800    2.71575300    0.00000000
Ca                  5.65403600    3.65469400    0.00000000
