 9

 O                 -2.03596300   -0.14806700    1.26082400
 P                 -1.08060000   -0.54003100    0.02869000
Ca                 -3.76576500    0.38105600   -0.01634600
 O                 -2.03650000   -0.26599000   -1.23555200
 O                  0.16438100    0.49952400   -0.02243500
Ca                  1.58301900   -1.57997900    0.00734100
Ca                  2.06321900    1.67458000   -0.01572800
 O                  3.11305900   -0.12504000    0.78745000
 O                  3.11996600   -0.13701200   -0.78224800
