 9

 O                  0.75613100   -1.24972300   -0.03346100
 O                  0.75866300    1.25023900   -0.03646700
 P                  0.97224100    0.00141700    1.11040000
 O                  2.54253200    0.00015300    1.24528600
Ca                  2.53432700   -0.00220400   -1.02129200
Ca                 -1.43956000    1.80083400   -0.04463700
 O                 -2.63264400    0.00115300    0.53172100
 O                 -2.37876700    0.00046800   -1.01549700
Ca                 -1.44231400   -1.80060800   -0.04350300
