 9

 O                 -2.06790500    0.00320300    1.10348300
 O                 -0.60821100    0.00204400    1.52229800
 O                  1.23864200    1.28378300   -0.44229900
Ca                 -1.05222600    1.67288800   -0.13983000
 P                  1.06498900   -0.00259100   -1.53087500
Ca                  1.62626200    0.00000700    1.38967500
 O                  1.23602800   -1.28669700   -0.43968200
Ca                 -1.05615400   -1.67143900   -0.13663100
 O                 -0.59011200   -0.00111500   -1.65644600
