 9

 O                  1.68684800   -1.04036000   -0.00002300
 O                 -2.78772800   -1.05480200    0.78461600
 O                 -2.78776600   -1.05483800   -0.78453700
Ca                 -2.87056200    1.03813800   -0.00007500
Ca                 -0.67980600   -1.27817600    0.00004100
 P                  3.25004000   -0.96635900   -0.00005400
 O                  3.59148700    0.53438800   -0.00005200
 O                 -0.62458700    1.10508100    0.00000000
Ca                  1.48153700    1.56901900    0.00007300
