 9

 O                 -2.53643200    1.26236700    0.04586100
 O                 -1.14252700    0.87748000    0.15937400
 O                  1.46233500   -0.42553900    0.78964600
 O                  1.40893100   -0.45694900   -0.76840600
Ca                  3.68000500   -0.44388800   -0.06958300
Ca                  1.01289200    1.80330700   -0.00465800
 P                 -3.61708200    0.06045900   -0.11443000
Ca                 -0.51491300   -1.40483400    0.10222800
 O                 -2.85523600   -1.25718300   -0.08188600
