 9

 O                 -0.72768100    0.25882800   -0.93961800
 O                 -1.47689000    1.35262900   -0.18030600
 O                  0.91770300    0.09560500    1.03580900
 P                 -0.00350300   -0.85579500    0.20037900
 O                  0.89629400   -1.72004000   -0.67737200
 O                 -1.24267000   -1.45696900    0.86732000
Ca                 -2.97081500   -0.37152200   -0.11152900
Ca                  2.94315300   -0.65006300   -0.16005100
Ca                  0.68358700    2.25141000    0.07896300
