 9

Ca                  0.92770300   -1.24120700   -0.39362600
 O                  2.96460700   -1.33137500    0.85305600
 O                  3.31532400   -1.11863100   -0.35992500
 O                  1.97393300    0.82252300   -0.43669000
 O                  1.62794700    0.53548400    0.93755600
Ca                  0.37434400    2.34107400    0.23969600
 P                 -1.73369200    0.67847200   -0.92342600
 O                 -1.31988200   -0.94252900   -0.22201200
Ca                 -3.42655100   -0.79491000    0.53770600
