 9

 O                 -1.30957800   -2.49941900    0.00000000
 P                 -1.30552500   -0.96035000    0.00000000
 O                 -2.61398800   -0.13976700    0.00000000
Ca                 -1.93116100    2.14523200    0.00000000
 O                  0.00000000    1.19670900    0.00000000
 O                  0.30947600    2.72056300    0.00000000
Ca                  2.20057700    1.11918300    0.00000000
 O                  2.51708200   -1.02390500    0.00000000
Ca                  1.14853100   -2.64582500    0.00000000
