 9

 O                  2.81204000    0.81913300   -0.55388600
 O                  0.07268100   -1.56369200   -0.73446300
 P                 -0.57468500   -0.60072400    0.28070900
 O                  0.52191200   -0.16951400    1.30364000
 O                 -1.95364200   -1.09833900    0.82904000
Ca                 -3.18323400    0.27232200   -0.36964500
 O                 -1.00661200    0.83399300   -0.44373500
Ca                  1.11701500    1.88178200    0.17613800
Ca                  2.31868100   -1.23219300   -0.17726300
