 9

 O                  0.00499200    1.27392000    1.19875500
 P                  0.92492400    0.00053800    1.54491800
Ca                  1.00633900    1.75579800   -0.85930400
 O                  0.01252300   -1.27770400    1.19637700
 O                  2.04475600    0.00501200    0.36220500
Ca                  1.01751000   -1.74988100   -0.86229400
 O                 -0.22020100   -0.00047700   -1.48115800
Ca                 -1.85059600   -0.00630500    0.20640500
 O                 -4.00943500   -0.00078900   -0.38491800
