 9

 O                 -2.94164900    0.74694000   -0.41712500
 O                 -2.46972100    0.83601900    1.07596200
Ca                 -2.44979600   -1.28161000    0.36626300
Ca                 -0.80806200    1.49984400   -0.31496500
 O                  1.42754100    0.89074700   -0.49323900
 P                  1.13731200   -0.79041500   -0.93957100
 O                  2.21546500   -1.47188000    0.02959200
Ca                  3.24633600    0.34572100    0.68813200
 O                 -0.33528900   -0.92968300   -0.28207100
