 9

 O                  0.64930300   -2.46500200    0.19518300
 O                 -0.07480200   -1.25867400   -0.34757500
 P                 -1.12054300   -0.71611900    0.87043400
 O                 -1.46127700    0.81443200    0.19374900
Ca                 -3.52483400   -0.05697700   -0.43269200
Ca                  0.49774500    2.03519400    0.11519000
 O                  2.24351500    1.08140500   -0.88761400
 O                  2.34867400    0.95282700    0.67292600
Ca                  2.38533000   -1.09112300   -0.26599000
