 9

 O                 -2.61405300   -0.13994000    0.00000000
 P                 -1.30543200   -0.95999700    0.00000000
 O                 -1.30891300   -2.49908900    0.00000000
Ca                  1.14763200   -2.64501000    0.00000000
Ca                  2.20048900    1.11853400    0.00000000
 O                  2.51752200   -1.02414100    0.00000000
 O                  0.00000000    1.19573800    0.00000000
 O                  0.30914800    2.71952000    0.00000000
Ca                 -1.93052900    2.14563900    0.00000000
