 9

 O                 -0.49928200   -0.01589300   -1.70136000
Ca                  1.28504500   -1.22874400   -0.92252200
 O                  2.56137800    0.08504300    0.38972900
 O                  1.25989800    0.75836900    0.69998500
 P                  0.04738200   -0.05340800    1.76338200
 O                 -1.15944400    0.87889500    1.11710600
Ca                 -0.08582700    1.94577600   -0.70226800
 O                 -0.16623200   -1.44789700    0.92694100
Ca                 -2.03328100   -0.78038200   -0.27070700
