 9

 O                  1.95321200   -1.09900300    0.82843700
 O                 -0.52258500   -0.17130800    1.30299000
 P                  0.57436600   -0.60114300    0.27993200
 O                 -2.81158300    0.81896300   -0.55363300
 O                 -0.07244000   -1.56303200   -0.73650100
 O                  1.00652100    0.83433700   -0.44317000
Ca                 -2.31811000   -1.23228500   -0.17655200
Ca                  3.18310000    0.27264100   -0.36870400
Ca                 -1.11701500    1.88251800    0.17605800
