 9

 O                 -1.54812500    0.00043400    1.14655900
 P                 -2.49494100    0.00009700   -0.19869700
 O                 -2.07870900    1.33538700   -0.91105900
 O                 -2.07974200   -1.33614600   -0.90987300
Ca                 -0.18838300   -1.70283400    0.34580200
 O                  1.51783100    0.00123900    0.88519200
 O                  1.17711300   -0.00038200   -0.63680900
Ca                  3.45240000   -0.00047900   -0.37182700
Ca                 -0.18815800    1.70302700    0.34544500
