 9

Ca                  2.01596600   -1.74548500   -0.01890000
 O                  2.87557500    0.17630800    0.25500500
Ca                  1.71392300    1.94599200    0.10546500
 P                 -0.44520700   -0.06903400   -0.94459300
 O                 -2.11365100   -0.30006400   -1.21440500
 O                 -3.11428400    0.67191400   -0.62367500
 O                 -0.25131500   -1.36329300    0.08485100
Ca                 -2.18420500   -0.27267900    1.15248000
 O                 -0.42577500    1.12500400    0.17172300
