 9

 O                 -0.66817900   -1.25884300    0.97604700
 O                  2.06055700    0.00031300   -0.10130600
 O                  1.62823600   -0.00323100    1.36482900
Ca                  0.72133000   -1.68302600   -0.84845400
 O                 -0.51127800    0.00400400   -1.75450700
Ca                 -2.16472300    0.00061600   -0.27899100
 O                 -0.66810700    1.25434200    0.98178800
 P                 -0.01913200   -0.00423600    1.84208000
Ca                  0.72125100    1.68695300   -0.84085600
