 9

 O                  0.29455700   -0.99836500    0.97065100
 O                  0.53312300   -1.67143000   -0.39123700
 P                  1.01546200    0.64368200    1.22641100
 O                  2.53163900    0.34124800    0.98217600
 O                  0.57013800    1.28963000   -0.25167200
Ca                  2.15324500   -0.23418300   -1.16138300
Ca                 -1.64876000    1.88487900   -0.27420400
 O                 -2.74694600    0.07796200   -0.32800000
Ca                 -1.73908600   -1.74907500    0.12301100
