 9

 O                 -4.70350900   -1.07510900   -0.07454200
 P                 -3.95374600    0.18444800   -0.02409700
 O                 -4.30058000    1.61822200   -0.04821700
 O                 -2.34022600    0.07546800    0.08299000
 O                 -1.75707200   -1.32268500    0.09176500
Ca                  0.00750800    0.07788100    0.03973600
Ca                  3.72650200    1.73881900   -0.00770500
 O                  2.23324500    0.07989000   -0.00060900
Ca                  3.57855600   -1.70535000   -0.03451200
