 9

 O                 -1.71585600   -0.44785700   -1.15438500
 O                  2.90218300   -1.10723300   -0.15350800
Ca                  2.82840000    0.92028000    0.47367700
 O                  0.61154300    0.98221700    0.00040300
Ca                 -1.30295900    1.90339300   -0.40888600
 O                 -2.61477500    0.39140300    1.05484300
 P                 -1.97381300   -0.75446300    0.31934400
 O                 -1.31556600   -1.96940900    0.87886000
Ca                  0.80790700   -1.39747400   -0.55478400
