 9

 O                 -0.66804100   -1.25996500    0.97473700
 O                 -0.51146800    0.00592500   -1.75463200
 O                  2.05986200    0.00046400   -0.10122900
 O                  1.62846300   -0.00478300    1.36492000
Ca                  0.72124300   -1.68227200   -0.85053200
Ca                  0.72112700    1.68808800   -0.83928100
 O                 -0.66793900    1.25329800    0.98323700
 P                 -0.01888900   -0.00627200    1.84227400
Ca                 -2.16455300    0.00091200   -0.27870600
