 9

 O                  3.59112300    0.53431600    0.01419400
 O                 -2.79028900   -1.05391900   -0.78190600
 O                 -2.78454900   -1.05617700    0.78741000
Ca                 -2.87074000    1.03788700    0.00607500
 O                 -0.62460400    1.10532200   -0.00169500
 O                  1.68680900   -1.04093600   -0.01326000
 P                  3.24985800   -0.96649100    0.00745000
Ca                 -0.67961900   -1.27780600   -0.00547900
Ca                  1.48156900    1.56934500   -0.00808000
