 9

 O                  0.00000000    0.99641600    0.00000000
 O                  0.79682200    2.18577000    0.00000000
 O                 -0.09694600    3.39427700    0.00000000
 O                 -1.47348400    3.03606900    0.00000000
 P                 -1.76658500    1.32493200    0.00000000
Ca                 -3.19750600   -1.03811600    0.00000000
 O                 -1.28999900   -1.91643900    0.00000000
Ca                  0.74326000   -1.26285400    0.00000000
Ca                  4.60462700   -1.77116600    0.00000000
