 9

 O                 -2.56118700    0.08407200    0.38999000
 O                 -1.26016800    0.75828200    0.70041600
 P                 -0.04630900   -0.05244000    1.76339100
 O                  1.15956400    0.88024500    1.11594300
 O                  0.49837600   -0.01658000   -1.70122400
Ca                  0.08366500    1.94558000   -0.70327300
Ca                  2.03401900   -0.77922600   -0.27115500
Ca                 -1.28467000   -1.23053200   -0.92125700
 O                  0.16770900   -1.44725100    0.92772800
