 9

 O                 -4.60918000   -0.85903500   -0.48643700
 O                 -4.73196100    0.08773000    0.49797100
Ca                 -2.54227700   -0.09948000    0.00938400
 O                 -0.44541300    0.83507900   -0.03295300
 P                  0.45036500   -0.56083000    0.02388900
 O                  1.53073600   -0.32469800   -1.18873600
 O                  1.53279000   -0.22518100    1.21175900
Ca                  1.57790700    1.93614900   -0.07664100
Ca                  3.31580700   -1.22160400    0.04869900
