 9

 O                 -0.73060500   -2.10862900   -0.69269900
 O                 -0.67264400   -1.90833500    0.86311900
 O                 -1.80702000    1.32174900   -0.86343700
 O                 -1.96480900    1.42078900    0.69780900
Ca                 -2.38851200   -0.70928900   -0.01056900
 P                  3.29558600    0.47876100   -0.02257000
 O                  1.70323000    0.73312600    0.02592600
Ca                 -0.04625900    2.28940900    0.03831400
Ca                  1.35182100   -1.72267000   -0.02310400
