 7

 O                  2.16068200   -1.04898300    0.76534400
 O                  2.16224100   -1.04888600   -0.76452600
 P                  3.07468700    0.27196700    0.00133100
 O                  2.04711500    1.41789300    0.00046100
Ca                  0.11021400    0.06743500   -0.00151500
 O                 -2.07003900    0.02487600   -0.00421500
Ca                 -4.13622900   -0.00937000    0.00169200
