 7

 O                 -1.38170400    1.46410800   -0.00022300
 O                 -0.00001700   -0.33102700   -1.19685700
Ca                 -2.06981500   -0.75309800   -0.00000600
 P                 -0.00003300    0.79917200    0.00002200
 O                  1.38165600    1.46416800   -0.00032500
 O                  0.00008800   -0.33025200    1.19738900
Ca                  2.06983100   -0.75308000   -0.00000300
