 7

 O                  0.25335300   -0.98087900   -0.00172400
Ca                 -2.24986300   -0.68701000    0.00014900
 O                 -0.98024200    0.81533900   -1.24992100
 P                 -0.06683900    0.67842700   -0.00008100
 O                  1.34920800    1.31650800    0.00074400
 O                 -0.98013100    0.81328400    1.25042600
Ca                  2.44311600   -0.60751200    0.00010100
