 7

 O                 -3.24688300   -0.00013800    0.00017300
 P                 -1.77648100   -0.00005900   -0.00002300
 O                 -0.94906900   -1.27823300   -0.00031400
 O                 -0.94921100    1.27820200    0.00006100
Ca                  1.25653800    1.89403600   -0.00004500
Ca                  1.25673200   -1.89395600    0.00005600
 O                  2.19289200    0.00008100    0.00009600
