 7

 O                 -2.48780700    1.23967000   -0.00769600
 P                 -3.42117400    0.00036000   -0.00021700
 O                 -2.48843500   -1.23941500    0.00713700
 O                  1.67780700   -0.01209700   -0.78771400
 O                  1.67811900    0.01124200    0.78793700
Ca                 -0.48796600   -0.00037000    0.00058800
Ca                  3.70197300    0.00034000   -0.00029000
