 7

 O                 -1.71351500    0.00026600   -0.78582800
 O                 -1.71314700    0.00018400    0.78682700
 O                  1.44265200    1.27337300   -0.00041900
 O                  1.44226400   -1.27365900   -0.00056000
 P                  2.31990700   -0.00021100    0.00048800
Ca                 -0.76180800   -1.85786900   -0.00017500
Ca                 -0.76142400    1.85796100   -0.00020000
