 7

 O                  1.71340200    0.00092500   -0.78619600
 O                  1.71331900    0.00090600    0.78633200
 O                 -1.44304700    1.27283100   -0.00047400
 P                 -2.31995500   -0.00113000    0.00027500
Ca                  0.76258300   -1.85787200   -0.00002900
 O                 -1.44162900   -1.27415000   -0.00021700
Ca                  0.76056500    1.85851500    0.00004500
