 7

 O                  2.30324800   -2.18183500    0.00000000
 O                  0.84161800   -1.82938900    0.00000000
 O                 -2.30392600   -0.17683800    0.00000000
 P                 -0.82908600   -0.78559900    0.00000000
Ca                 -1.90166900    1.97485000    0.00000000
 O                  0.00000000    0.75693500    0.00000000
Ca                  2.18710700   -0.01320000    0.00000000
