 7

 O                 -3.04500000   -1.20282000   -0.00034500
 P                 -3.88573000    0.09742800   -0.00133300
 O                 -2.88074400    1.27398400    0.00011800
Ca                 -0.96032100   -0.10402100    0.00246900
 O                  1.26990600   -0.09996600   -0.00064300
Ca                  3.45236100    0.00211400   -0.00218200
 O                  5.71148200    0.10089100    0.00265400
