 7

 O                 -2.60659200    1.93659200    0.00000000
 P                 -1.42665300    1.05949700    0.00000000
 O                 -1.52416400   -0.45994500    0.00000000
Ca                 -0.12019000   -2.27004300    0.00000000
 O                  1.76083200   -1.30734500    0.00000000
Ca                  2.13814900    0.77108400    0.00000000
 O                  0.00000000    1.59153700    0.00000000
