 7

 O                 -1.38142900    1.46478400   -0.00133200
 O                  1.38253600    1.46237300    0.00024300
 P                 -0.00021100    0.79909800    0.00009400
 O                  0.00031200   -0.33121700   -1.19628700
 O                 -0.00149400   -0.32988100    1.19757300
Ca                  2.06988400   -0.75268100   -0.00007600
Ca                 -2.06969500   -0.75306600   -0.00007300
