 7

 O                 -0.20348200   -1.70854400   -0.00562300
 O                  1.72987100   -0.02944200   -0.76589900
 O                  1.72362400   -0.03037800    0.77043000
 P                  1.32670400   -1.57900900    0.00069900
Ca                 -2.20576000   -0.59850300    0.00104600
 O                 -1.52454800    1.39719400   -0.00065200
Ca                  0.52054600    1.93122800   -0.00087200
