 7

 O                 -2.48792300   -1.23986300    0.00026000
 P                 -3.42037400    0.00042600   -0.00004600
 O                 -2.48715200    1.24013100   -0.00027400
Ca                 -0.48805700   -0.00049500    0.00006400
 O                  1.67748400    0.00012400    0.78780300
 O                  1.67744600   -0.00071700   -0.78777200
Ca                  3.70139600    0.00030600   -0.00003600
