 7

 O                  2.01142100    0.38617900    0.00029200
 O                  0.66911700   -1.77946200   -0.00041400
 P                  2.08253700   -1.16426900    0.00009200
Ca                  0.52461100    2.08784800   -0.00010300
 O                 -1.23653600    0.93132300   -0.00006600
 O                 -2.71031200    0.61442600    0.00015900
Ca                 -1.57999000   -1.27563300    0.00004600
