 7

 O                  1.51791700   -1.37534100    0.00000000
 P                  0.32200200   -2.36436100    0.00000000
Ca                  1.98269800    0.83614500    0.00000000
 O                  0.00000000    1.54870800    0.00000000
 O                 -1.13912300    2.53561800    0.00000000
Ca                 -1.96809600    0.49549200    0.00000000
 O                 -1.01905200   -1.60490000    0.00000000
