 7

 O                  0.20079100   -1.70918800   -0.00012800
 O                  1.52739300    1.39569400    0.00092600
Ca                 -0.51753100    1.93199100   -0.00020400
 P                 -1.32928200   -1.57728400   -0.00016400
 O                 -1.72645200   -0.02692500   -0.76800400
 O                 -1.72793500   -0.02840500    0.76825000
Ca                  2.20497400   -0.60149700   -0.00009000
