 7

 O                  1.44235300   -1.27353900    0.00001500
 P                  2.32004700   -0.00017700    0.00001400
 O                 -1.71379800    0.00013100   -0.78595300
 O                  1.44257900    1.27334100    0.00002600
 O                 -1.71353100    0.00013200    0.78635300
Ca                 -0.76138600    1.85812100   -0.00009500
Ca                 -0.76169100   -1.85801400   -0.00009200
