 7

 O                  1.71322600    0.00516100   -0.78561700
 O                  1.71254200    0.00500900    0.78674700
Ca                  0.76733900   -1.85612200   -0.00030900
 P                 -2.31955400   -0.00680500    0.00047100
 O                 -1.43761000   -1.27718700   -0.00015900
Ca                  0.75563700    1.86017300   -0.00010000
 O                 -1.44643400    1.26964800   -0.00083100
