 7

 O                  1.49185000   -0.09661800    0.00000100
 O                  1.61690700   -1.53227300    0.00000000
Ca                 -0.00010700   -2.96196400   -0.00000100
 O                 -1.61697600   -1.53211200    0.00000000
 O                 -1.49189100   -0.09646400    0.00000100
 P                  0.00000300    0.71417700   -0.00000100
Ca                  0.00079100    3.34746500   -0.00000100
