 7

 O                  0.16779300   -0.33255200    1.30653400
 O                 -3.54624000    1.37007300   -0.12429500
 O                 -4.12578000    0.17663500   -0.05873900
Ca                 -1.84669500   -0.18720800    0.00260100
 O                  0.16812400   -0.85378200   -1.13674800
 P                  1.04182600   -0.80990800    0.13094000
Ca                  3.99976600    0.65048900   -0.09550700
