 7

 O                 -1.72660300   -0.03309100    0.76993200
 O                 -1.72829100   -0.03299000   -0.76669700
 P                 -1.32298900   -1.58179500   -0.00066600
 O                  0.20734200   -1.70786700   -0.00175900
 O                  1.52047000    1.39911900   -0.00124100
Ca                  2.20759200   -0.59425400    0.00079400
Ca                 -0.52451700    1.93053200   -0.00038900
