 7

 O                 -1.89608600   -0.76027200    0.79184100
 O                 -1.78146400   -0.87464900   -0.77183900
 O                  1.47793400   -0.08295800    0.19949500
 P                  1.48902800    1.45961500    0.08818300
 O                  0.05111600    2.01113300   -0.05599500
Ca                 -0.01359900   -1.80820300    0.21676000
Ca                 -2.09539900    1.24772500   -0.15881200
