 7

 O                 -1.71228700    0.00611500    0.78680900
 O                 -1.71532000    0.00603600   -0.78508300
 P                  2.31973600   -0.00797000    0.00029900
 O                  1.43751900   -1.27812900   -0.00164700
 O                  1.44707800    1.26889400    0.00052900
Ca                 -0.75421500    1.85997500   -0.00054000
Ca                 -0.76838300   -1.85516300    0.00007300
