 7

 O                  2.64143500    0.68251500    0.00000000
 P                  1.16528400    0.21395500    0.00000000
 O                  2.88012200    2.10245500    0.00000000
 O                  0.00000000    1.17985100    0.00000000
Ca                 -2.28506000    1.17124200    0.00000000
Ca                 -1.14582100   -2.40661600    0.00000000
 O                  0.87073800   -1.27755000    0.00000000
