 7

 O                  0.04455300    1.67319900   -0.01987400
 O                  3.36841800   -0.32498500    0.85733200
 O                  3.58642500   -0.05557200   -0.38386700
Ca                  1.22215400   -0.41168100   -0.24216600
 P                 -1.43699900    2.03874300    0.01944300
Ca                 -2.67971100   -1.04409900    0.12715600
 O                 -0.66112800   -1.47583400   -0.20252000
