 7

 O                 -0.98054000    0.81537500    1.25022100
 O                  1.34912200    1.31639700    0.00008200
 P                 -0.06729500    0.67993100    0.00000000
 O                 -0.98076100    0.81594900   -1.24991400
Ca                 -2.24745400   -0.68874000   -0.00001400
 O                  0.25200800   -0.98018400   -0.00032100
Ca                  2.44199400   -0.60822300   -0.00001400
