 7

 O                  1.49129500   -1.19277800   -0.00064700
 P                  2.50534600    0.00441700    0.00029200
Ca                  0.00659200    1.81640000   -0.00034300
 O                 -1.16614000    0.22042600    1.20221300
 O                 -2.03725400    0.41728500    0.00084500
 O                 -1.16744400    0.22051900   -1.20183100
Ca                 -0.73378400   -1.68589400   -0.00010800
