 7

 O                 -0.62793400   -0.75498000   -0.01065400
 P                 -2.09555800   -1.32515100   -0.00182600
Ca                 -4.03495900    0.97018300    0.00804400
Ca                  1.59058000   -0.43563400   -0.01121600
 O                  3.87614200   -0.49117800    0.03533200
 O                  4.00619400    0.87811000    0.01302500
 O                  2.78571600    1.51633200   -0.02634900
