 7

Ca                  2.06983800   -0.75307800    0.00000600
 O                 -0.00010400   -0.33151700   -1.19655000
 P                 -0.00003400    0.79916800    0.00001400
 O                  1.38164900    1.46417700   -0.00074000
 O                 -1.38170900    1.46409600   -0.00044000
Ca                 -2.06982900   -0.75309300   -0.00000200
 O                  0.00020500   -0.32976900    1.19769500
