 7

Ca                  2.06933100   -0.75340100   -0.00010300
 O                  1.38171600    1.46430300    0.00045900
 O                  0.00041600   -0.33018900   -1.19705400
 P                  0.00000100    0.79969600    0.00009200
 O                 -0.00036400   -0.33084900    1.19716400
Ca                 -2.06935300   -0.75339200   -0.00009500
 O                 -1.38171500    1.46428900   -0.00024600
