 7

 O                  0.14928100   -1.95654200    0.76949500
 O                  0.14928100   -1.95654200   -0.76949500
 P                  0.95965800   -0.51985600    0.00000000
Ca                  0.72923100    2.28253900    0.00000000
 O                  0.14928100    0.47236000    1.18647400
Ca                 -1.68782400   -0.70530100    0.00000000
 O                  0.14928100    0.47236000   -1.18647400
