 7

 O                 -1.44098200   -1.27465000   -0.00051000
 O                 -1.44385700    1.27220300    0.00023700
 P                 -2.32000300   -0.00221200    0.00008900
Ca                  0.76349500   -1.85742300   -0.00007500
Ca                  0.75969700    1.85874800   -0.00030100
 O                  1.71412200    0.00157900   -0.78567800
 O                  1.71274500    0.00170500    0.78672400
