 7

 O                 -0.56622700   -1.82837000   -0.02831400
 O                 -1.81540700    0.37964200    0.19757400
 P                 -1.95171900   -1.15941400    0.12821500
Ca                 -0.19209400    1.97946900    0.14053900
Ca                  1.63168600   -1.24175600   -0.18809300
 O                  1.61366900    0.79971500    0.71094200
 O                  1.47684200    0.88201200   -0.85328400
