 9

 O                  0.77933100    0.10224500   -0.67476500
 O                 -2.73427600    0.01307400    0.52795800
 O                 -2.32500600    0.06239700   -0.90063700
 O                 -1.58143400   -0.51471500    1.30272400
 P                  1.80816700    1.61060300   -0.47996900
Ca                 -0.87264500    1.49703400    0.30394200
Ca                 -0.70740300   -1.58823800   -0.56519300
Ca                  2.50985300   -0.84879000    0.50988900
 H                  1.17247700   -2.66317300    0.18456800

