 9

 O                  2.23486800   -1.46447800   -0.05537200
 O                  0.47815300   -0.00393600   -1.19210400
 O                  2.35047700    1.30671600   -0.05827900
 O                  0.58203500   -0.00565100    1.22839600
 P                  1.63207600   -0.05246000   -0.02745000
Ca                 -0.13932400   -1.97958900    0.04008300
Ca                  0.02684400    1.99582700    0.03683000
Ca                 -3.26064600   -0.01305200   -0.02699900
 H                 -2.18290100    2.06194600    0.03233700

