 9

 O                  1.44184800   -1.45429100    0.77442900
 O                 -0.08769300   -0.02470400   -0.63492200
 O                 -0.03416100    0.45273400    1.83670100
 O                 -1.21219300   -1.65259900    0.85064300
 P                  0.13960200   -0.67114200    0.81116000
Ca                  2.45010700   -0.27348200   -1.05592200
Ca                 -0.04935200    2.24895800    0.28428800
Ca                 -2.47585600   -0.30493900   -1.05512900
 H                 -1.45441900   -1.91272500    1.75306000

