 9

 O                  0.24760800    1.26031500    0.66716500
 O                  0.24290600   -1.26448600    0.66513400
 O                 -1.94658100    0.00217200    0.55646700
 O                  4.00095100    0.00327000   -0.79243600
 P                 -0.54157300   -0.00121400    1.43650900
Ca                  2.10856900   -0.00511500    0.08246700
Ca                 -1.48477200   -1.81915700   -0.77043000
Ca                 -1.47825800    1.82450100   -0.76675900
 H                  4.85376300    0.00344000   -1.22382700

