 9

 O                  0.47005600   -1.40125100    1.04567600
 O                  0.00180600    0.00816200   -1.63330800
 O                  0.97062800    1.09940600    1.05690800
 O                 -1.44491900    0.28228100    1.05005200
 P                 -0.00189900   -0.00880400    1.58502200
Ca                 -0.64091000    1.90332800   -0.64034900
Ca                  1.96763200   -0.39032100   -0.64868400
Ca                 -1.32409800   -1.50111200   -0.65707100
 H                 -0.00457800   -0.01463700    2.99213800

