 9

 O                  3.07407700    0.91408800   -0.34269800
 O                  0.69919200    1.51275300    0.42120000
 O                  0.88796600   -1.90749300    0.19125800
 O                 -2.87956800   -0.47430600    0.92607500
 P                  2.09508400    2.03530000    0.07741900
Ca                  2.80167200   -1.35725700   -0.43855700
Ca                 -4.27301100    0.29720800   -0.70352100
Ca                 -0.64928400   -0.42941600    0.52793900
 H                 -3.26712500   -1.10053000    1.55480700

