 9

 O                 -1.08996100    1.28757700    0.71221400
 O                  0.63029800   -0.01402000   -1.34598000
 O                  2.12760000   -0.00578600   -0.98062200
 O                 -1.08046600   -1.27280400    0.74327200
 P                 -0.87032100    0.01981000    1.73756800
Ca                  1.13526800   -1.66914800    0.21676400
Ca                  1.12608100    1.67707300    0.18382300
Ca                 -1.68548900   -0.01801500   -1.21827500
 H                 -3.16216700   -0.05509600   -2.74083000

