 9

 O                 -0.04344700   -0.24025000    0.30300500
 O                 -1.04813300    2.18140200    0.12078400
 O                 -2.60453300    0.09042500   -0.01754500
 O                  2.85391600    0.42305400   -0.24621300
 P                 -1.53364200    0.85669700    0.86516200
Ca                  1.83617600   -1.50910500    0.52804700
Ca                  0.96748600    1.60330600   -0.57023200
Ca                 -1.50620000   -1.74468200   -0.64913400
 H                  3.79297500    0.52209300   -0.43128000

