 9
 9
 O                 -1.93849100    0.10804300   -0.66022800
 O                  2.30530700   -0.78173800    0.79767700
 O                  1.79191800    0.60451600    1.03407600
 O                  2.22665600   -1.00293000   -0.68139800
 P                 -2.69736700   -1.33108000   -0.05883000
Ca                 -3.76771400    1.24973500    0.05720800
Ca                  0.04522100   -0.66994500    0.11755200
Ca                  3.72221700    0.75302500   -0.28178500
 H                  5.38291800    1.88677600   -0.89807400

