 9

 O                 -1.49045100   -1.82377800   -0.08599200
 O                 -1.50490900    1.92002900   -0.53025600
 O                  0.63431600   -0.45477000   -0.19286900
 O                 -0.58604500   -0.44750600    1.98274800
 P                 -0.13492900   -1.65705700    0.67856400
Ca                 -1.50553600    0.00760400   -1.46184500
Ca                 -0.02872000    1.62597700    0.98262000
Ca                  2.88186000   -0.02905100   -0.62251200
 H                 -1.35142300   -0.78655900    2.46722200

