 9

 O                 -0.78820200    1.13964700    0.72078800
 O                 -0.22464400   -1.54599500   -0.73506500
 O                 -2.04814000    0.29416500    0.98528100
 O                  1.76892200   -0.45265800    0.42440000
 P                  1.38527700   -1.26319100   -0.96969700
Ca                 -1.62767600    0.27627100   -1.28810600
Ca                  1.26751600    1.84240400    0.02625100
Ca                 -0.22356500   -0.94337400    1.52331100
 H                  1.23184400   -0.03940700   -1.84689600

