 9

 O                  0.24396700   -1.26324800    0.66610800
 O                  0.24603700    1.26145100    0.66712200
 O                 -1.94681300    0.00104800    0.55590900
 O                  3.99912200    0.00116600   -0.79513100
 P                 -0.54233600   -0.00038600    1.43651500
Ca                 -1.48243200   -1.82052000   -0.76990800
Ca                  2.10914300   -0.00233000    0.08502400
Ca                 -1.47931100    1.82284800   -0.76844600
 H                  4.84853200    0.00248200   -1.23318800

