 9

 O                  2.43282000   -0.92366900    0.91680700
 O                  1.36746700    0.41866100   -0.93267600
 O                 -2.06809400    1.66102500    0.18351800
 O                 -1.48120000   -1.98609300   -0.08467600
 P                  2.65437800    0.42197800    0.12446300
Ca                 -0.00108400    2.02878000   -0.09643200
Ca                 -2.82219100   -0.34653000    0.16814500
Ca                  0.63258900   -1.74455300   -0.25106700
 H                  1.99009900    1.55700600    1.05635100

