 9

 O                 -0.24394600   -1.26307700    0.66671100
 O                  1.94678300    0.00106700    0.55524600
 O                 -0.24594600    1.26164900    0.66769000
 O                 -3.99793600    0.00010500   -0.79688700
 P                  0.54266100   -0.00029000    1.43656400
Ca                  1.48197400   -1.82063800   -0.77005800
Ca                  1.47905800    1.82266200   -0.76887300
Ca                 -2.10928100   -0.00205100    0.08622400
 H                 -4.84656700    0.00695600   -1.23639900

