 9

 O                 -0.07413000    0.83445800    1.22997600
 O                  2.04721100   -0.32911800   -0.52286700
 O                 -0.20324300   -1.48847800   -0.64469900
 O                 -3.94504600    0.18120300   -0.15572900
 P                  0.93367500   -0.84450000   -1.58804100
Ca                  0.96578200   -1.10688900    1.41777300
Ca                  1.30547000    1.89063700   -0.14888300
Ca                 -1.85642700    0.15979900   -0.03120700
 H                 -4.89995000    0.21204000   -0.18649000

