 9

 O                 -2.27529900    0.08485100    0.56290500
 O                  3.93750700    0.19159200    0.37744700
 O                 -0.11395300   -1.29386900    0.70241700
 O                  3.64053900   -0.08706800   -1.08842800
 P                 -0.92296800   -0.07370200    1.51683500
Ca                 -1.73494600   -1.59492500   -0.94813700
Ca                  1.72558900    0.04918700    0.21892200
Ca                 -1.58236700    2.01277200   -0.55450300
 H                  4.16863700    0.60078300   -1.51290000

