 9

 O                  0.49930200   -2.50804600    0.09779600
 O                  1.79527000    0.48983600    0.67824200
 O                 -0.19802000   -1.12907100    0.29981600
 O                 -4.15197500    0.05933700   -0.60059100
 P                  0.46069700   -0.07557600    1.53093400
Ca                  1.01576800    2.37208300   -0.36708900
Ca                  1.88833900   -1.12366500   -0.95581200
Ca                 -2.17521500    0.04039100    0.03164000
 H                 -5.04490100    0.06099600   -0.94089600

