 9

 O                  1.94607100    0.00947200    0.54721500
 O                 -0.23681500   -1.26526200    0.66602700
 O                 -0.25119100    1.26087400    0.67020000
 O                 -4.00423300   -0.00552500   -0.78031700
 P                  0.54595300    0.00157200    1.43435300
Ca                 -2.10284700   -0.01059700    0.07679500
Ca                  1.49016000   -1.82548000   -0.76711000
Ca                  1.46457000    1.83512900   -0.76617000
 H                 -4.85760400   -0.00109900   -1.21059900

