 9

 O                  1.87334000   -1.55631400   -0.83043500
 O                 -0.88262600    1.01572100   -0.48078000
 O                 -2.41683700   -1.54191900    0.40737500
 O                  1.54173200    0.01347000    1.30789300
 P                  2.76974100   -0.45630000   -0.14914000
Ca                 -2.96058600    0.45576900   -0.06542300
Ca                  1.02626500    1.95600700   -0.05495500
Ca                 -0.28346600   -1.22517400   -0.03653700
 H                  1.88475700   -0.33520200    2.14297900

