 9

 O                 -0.52325600    0.51547200    1.13043900
 O                 -2.53816000   -0.87610300    0.57265200
 O                 -0.42022000   -1.05793300   -0.80094100
 O                  2.72237000    0.34569200   -0.12500200
 P                 -0.98598700   -1.04776500    0.81859600
Ca                 -1.86080700    0.82719400   -0.86032900
Ca                  1.73403900   -1.51677500   -0.35264400
Ca                  1.19229300    1.77516000    0.34420900
 H                 -0.44655000    2.58786700   -1.12085500

