 9

 O                 -0.66492300   -0.58163100    1.32999300
 O                  1.00862300   -0.08578700   -1.09040300
 O                  1.35761100   -1.57189500   -0.92700500
 O                 -2.55916600    0.20803200   -0.33285300
 P                 -1.51913100    0.82939000    1.09457900
Ca                  0.82925300    2.13077400   -0.67427200
Ca                 -0.89468300   -1.32690300   -0.88817000
Ca                  1.71955600   -0.61493200    1.14789200
 H                 -3.43272600    0.03062100    0.03445400

