 9

 O                 -1.27493300    1.18640500   -0.33629200
 O                 -0.00016800   -1.92730600   -0.50179600
 O                 -0.00031900   -1.31518000    0.94187400
 O                  1.27580100    1.18604000   -0.33497800
 P                  0.00100900    1.51236200   -1.34639900
Ca                  2.01195900   -0.98000400   -0.23552700
Ca                 -2.01216500   -0.97937600   -0.23643400
Ca                 -0.00076200    1.02517300    1.63727200
 H                  0.00118200    2.95905100   -1.26070500

