 9

 O                  0.09842500   -1.30602600    1.52992600
 O                  2.63057700   -0.00177300   -0.90839000
 O                  0.09661600    1.31650300    1.52490500
 O                 -0.53637400   -0.00004600   -0.58984800
 P                 -0.70599500    0.00414400    1.19139100
Ca                  1.32759500   -1.60650600   -0.36843700
Ca                  1.32446900    1.60403300   -0.37636700
Ca                 -2.80966400   -0.00331900   -0.67987100
 H                 -4.57202400   -0.01558700   -1.83012200

