 9

 O                  1.23122200   -1.84749300    1.01203100
 O                  1.80533600   -0.04663600   -0.71947500
 O                  0.01667800    0.42241600    0.84823400
 O                 -2.26214900   -1.06502700   -0.69241500
 P                  1.60385400   -0.31348200    0.94411500
Ca                  0.87306900    2.06791400   -0.65255700
Ca                 -2.18082400    0.80443800    0.64141700
Ca                 -0.05889000   -1.55326700   -0.81945700
 H                 -3.05361300   -1.38556900   -1.13678400

