 9

 O                  1.94729000   -0.54293500   -1.20882300
 O                  2.89247000   -0.23734400   -0.09972200
 O                 -0.80902400    0.20106300    0.03932400
 O                  2.09689700   -0.21426500    1.15800800
 P                 -1.59450000    1.78046600    0.19130200
Ca                 -2.88394100   -0.83649600   -0.20753400
Ca                  0.51786400   -1.69640800    0.25635800
Ca                  1.19145100    1.41953900   -0.22917200
 H                 -1.61105300    1.90815100    1.62714000

