 9

 O                 -2.05239700    0.97865900   -0.17076800
 O                 -1.95582400    0.00387000    0.96119700
 O                  0.65069100   -0.10966600   -1.03784400
 O                 -0.63865100    0.12091000    1.61272200
 P                  2.35768600    0.43630000   -0.74085800
Ca                  1.09441300   -1.42676900    0.94008500
Ca                  0.12407800    1.83656700    0.20852900
Ca                 -1.36312700   -0.99673000   -1.13500100
 H                 -0.50313400   -2.75602400   -0.08187100

