 9

 O                  1.44004000   -1.45530300    0.77463900
 O                 -0.03199800    0.45496000    1.83641100
 O                 -0.08839100   -0.02485300   -0.63480200
 O                 -1.21439800   -1.64932100    0.85375800
 P                  0.13894900   -0.67015200    0.81177700
Ca                  2.44934400   -0.27684500   -1.05596700
Ca                 -0.04647100    2.24977100    0.28223800
Ca                 -2.47637100   -0.30514500   -1.05495200
 H                 -1.45630100   -1.90719200    1.75691100

