 9

 O                  2.02637200    1.28702800   -0.57973100
 O                  2.02893900   -1.28941900   -0.57758100
 O                 -1.26538300   -0.00099000   -0.38229800
 O                  0.48621100    0.00331400    2.07705800
 P                  2.77555300   -0.00074800   -0.96504300
Ca                 -0.01377900   -1.58588000    0.50975800
Ca                 -3.41949700   -0.00228400   -0.64500800
Ca                 -0.01660100    1.58842400    0.50562100
 H                  1.15513400    0.00656500    2.76861200

