9
 O                  1.54160500    1.15243000    0.52766800
 O                 -0.05584600   -1.39580400    0.60987200
 O                 -0.42490900    1.22702300   -1.03493100
 O                 -2.72472200    0.08260600    0.49641000
 P                  1.14159300    1.46789800   -0.99289800
Ca                 -0.67534500    0.61449900    1.38950800
Ca                  2.08691200   -1.21759100    0.17837300
Ca                 -1.42488200   -0.95313400   -1.08390600
 H                 -3.54662400    0.57600000    0.42183100

