 9

 O                  3.01533700   -0.00549300    0.09751100
 O                  0.73680600   -1.28511300    0.63715000
 O                  0.74065600    1.26658900    0.66927500
 O                 -1.75654700    0.00945000   -0.49724100
 P                  1.51998400   -0.00249000    0.01378200
Ca                 -0.56176700   -1.69810800   -1.17990100
Ca                 -0.55567200    1.72891400   -1.13782600
Ca                 -1.01212300   -0.02035900    1.76470900
 H                 -2.09851400   -0.05502100    3.60007100

