 9

 O                 -2.92629900    0.67973800   -0.38742800
 O                  0.83132500    1.05100600   -0.31544200
 O                 -1.52334800   -1.44410800   -0.23608300
 O                  2.76177900   -1.34776300    0.25134200
 P                 -2.86593600   -0.83774400   -0.66328500
Ca                 -1.04318800    1.60113100    0.60583400
Ca                  2.93085800    0.55993200   -0.66623700
Ca                  0.63307300   -1.12053700    0.71815300
 H                 -0.57347300    0.24466000    2.29517900

