 9

 O                  0.96869800   -1.85482500   -0.69149800
 O                  0.93573300   -0.28304400    1.29196100
 O                 -1.16439500   -0.46777600   -0.08893500
 O                  1.73158700    1.86498400   -0.68022700
 P                  0.00200000   -1.49817200    0.54313400
Ca                 -0.22523900    1.54998900    0.51933100
Ca                 -3.32478000   -0.01002300   -0.41652200
Ca                  2.46432300   -0.24845000   -0.37705400
 H                  1.91095800    2.56755300   -1.31249700

