 9

 O                 -1.13522000    0.92669200    1.05970300
 O                 -0.22352700   -1.45632600    1.05123400
 O                  1.38249000    0.52394700    1.04135400
 O                 -0.01090800    0.00235700   -1.63263500
 P                  0.01092700   -0.00268900    1.58449000
Ca                 -1.87899700   -0.71596900   -0.63934700
Ca                  1.55373300   -1.26169400   -0.65906800
Ca                  0.31087800    1.98121800   -0.64738900
 H                  0.02112300   -0.00413800    2.99148900

