 9

 O                  0.02419400   -1.24800700    0.64908300
 O                 -3.74933700   -0.21629500   -0.97012900
 O                  2.21782000    0.08355500    0.72032400
 O                 -3.93473700    0.39870200    0.40962800
 P                  0.74980800    0.00104600    1.49610000
Ca                 -1.70419900    0.09043200   -0.15233800
Ca                  1.71799100    1.96907700   -0.56188600
Ca                  1.83032700   -1.65754600   -0.77071300
 H                 -4.59301700   -0.19859300    0.78601100

