 9
 O                  0.63049000    0.81383200    0.86802700
 O                 -1.72386700   -0.45497800   -0.91103900
 O                  0.95067400    1.65041100   -0.41388300
 O                  2.19440500   -1.69273800   -0.25563100
 P                 -2.95116600   -0.66193100    0.27480400
Ca                 -1.29647900    1.61019000   -0.07504400
Ca                  2.73771100    0.33409500    0.06760000
Ca                  0.05581600   -1.51147300    0.01902100
 H                 -2.08709700   -1.25947500    1.34660900

