 9

 O                 -1.32902500   -0.63244800   -1.21638000
 O                 -1.19406900   -0.60208200    1.24449000
 O                 -2.91864500    0.87713900    0.08816300
 O                  1.40241200    0.77307500   -0.13202100
 P                 -2.37779200   -0.61687600    0.07655700
Ca                 -0.71409700    1.51050700   -0.05309900
Ca                  0.51693000   -1.39018100   -0.07434300
Ca                  3.45346200    0.26927700    0.07332900
 H                  2.85558300   -1.86440000    0.05989500

