 9

 O                 -1.65272500    0.04619400    1.08935900
 O                 -1.84218300   -1.58428900   -0.87446000
 O                  0.92215200    1.10769400   -0.41546200
 O                  2.40283100   -1.54533900    0.39956100
 P                 -2.60116900   -0.38856500   -0.18970400
Ca                  2.98028700    0.41550300   -0.14774400
Ca                 -1.00736500    1.93530500    0.03607800
Ca                  0.23434800   -1.22151900    0.15204300
 H                 -3.76847100   -0.95140400    0.44602700

