 9

 O                 -1.59361800   -1.01693100   -0.75975700
 O                  1.96129200   -0.06259400   -1.15297800
 O                  2.54324700   -0.55688300    0.21214000
 O                 -0.39038500    0.26349800    1.02542200
 P                 -1.74959000   -0.86106100    0.97671200
Ca                  0.59428100   -1.62664400   -0.27285900
Ca                 -1.75807700    1.26607900   -0.63260500
Ca                  1.47289600    1.41591900    0.47071900
 H                 -0.10245200    2.79211700   -0.55442100

