 9

 O                 -0.23615900   -1.26937100    0.66681800
 O                  1.94723900    0.00771500    0.55067500
 O                 -0.25189900    1.25555300    0.67485900
 O                 -3.98777200    0.01012700   -0.80942200
 P                  0.54651000   -0.00385900    1.43706300
Ca                 -2.10958300   -0.01712900    0.09508000
Ca                  1.46471600    1.83109300   -0.76595600
Ca                  1.48826400   -1.81301000   -0.77769200
 H                 -4.83686700    0.00662300   -1.24802700

