 9

 O                 -1.66441900   -0.00715000    1.36468500
 O                 -0.11692300    0.00053000   -0.66397500
 O                  0.61045800    1.30166400    1.37936300
 O                  0.61627500   -1.30563700    1.37426400
 P                 -0.15609200   -0.00305500    1.04633800
Ca                  1.52761900   -1.76993100   -0.65748400
Ca                  1.51857700    1.77804300   -0.65105800
Ca                 -2.50586300   -0.00248200   -0.74787700
 H                 -4.02842900    0.01797300   -2.20138300

