 9

 O                  1.22461200   -1.85010200    1.01300600
 O                  1.80637800   -0.05083500   -0.71774800
 O                  0.01694600    0.42313200    0.84731000
 O                 -2.26391600   -1.06113800   -0.69278100
 P                  1.60183400   -0.31717300    0.94567300
Ca                 -2.17981300    0.80803200    0.64107200
Ca                 -0.06111300   -1.55184200   -0.82101700
Ca                  0.87873300    2.06632100   -0.65238300
 H                 -3.05580700   -1.38106700   -1.13683100

