 9

 O                  2.81211900   -0.62278600   -0.01958400
 O                  2.10979100   -0.01143200    1.14173200
 O                  1.98119700   -0.36874900   -1.22817400
 O                 -0.81131200    0.19877100    0.01067600
 P                 -1.69561500    1.72052800    0.21100700
Ca                  1.10346900    1.53275600   -0.25467000
Ca                  0.63326000   -1.61888400    0.25238100
Ca                 -2.81717300   -0.97349600   -0.20031300
 H                 -1.69128000    1.81812700    1.64974800

