 9

 O                 -1.78365500   -1.29464400    0.84931700
 O                  1.51665400   -0.28278000   -0.80962800
 O                 -1.97634700   -1.29452900   -0.71210500
 O                 -0.79845200    2.34273200    0.08064700
 P                  2.55676200   -0.61047100    0.55544600
Ca                  0.11558000   -1.91990800   -0.16465800
Ca                  1.25985600    1.85114400   -0.14225000
Ca                 -2.26628300    0.78672500    0.13017000
 H                  3.79990800   -0.96837000   -0.06275500

