 9

 O                 -1.13298600    0.44621100    1.21985300
 O                 -1.13645200    0.44864900   -1.21971500
 O                 -2.92395800   -0.91604500    0.00122100
 O                  2.56039600    1.22777200    0.00007100
 P                 -2.32292300    0.54983200    0.00183500
Ca                  3.07147600   -1.01579300    0.00059800
Ca                 -0.78004100   -1.64234300   -0.00171400
Ca                  0.33981100    1.66968300   -0.00084400
 H                  3.28291900    1.86887700    0.00023000

