 9

 O                  0.24519000   -1.26297300    0.66488800
 O                  0.24635100    1.26186800    0.66492100
 O                 -1.94647100   -0.00032100    0.56011100
 O                  4.00057600    0.00093700   -0.79479300
 P                 -0.53962000   -0.00024500    1.43690400
Ca                  2.10974700   -0.00086900    0.08387600
Ca                 -1.48284800    1.81957300   -0.76843400
Ca                 -1.48295100   -1.81851000   -0.76954900
 H                  4.85017500    0.00370200   -1.23244000

