 9

 O                 -1.42383100   -0.24967500   -1.21307500
 O                 -1.42392000   -0.24674900    1.21363900
 O                 -3.66084200   -0.48316900    0.00012900
 O                  2.69393100   -0.07880600   -0.00169400
 P                 -2.20767800   -1.11377100    0.00083800
Ca                  0.60013800   -0.47512900    0.00011000
Ca                 -2.55229900    1.47593800   -0.00060000
Ca                  4.79014400    0.22550700   -0.00018000
 H                  6.87277800    0.64744800    0.00882200

