 9
 O                  2.43833300    0.21715500    1.00311500
 O                  2.74276400    0.13716700   -0.53513400
 O                 -0.36739600   -0.05838700   -0.33381600
 O                 -2.46141800   -1.12095800    0.78477200
 P                 -1.40379600   -1.38941800   -0.64793000
Ca                 -2.35524800    1.25581400    0.07083900
Ca                  1.17073100    1.72431300   -0.12612000
Ca                  1.40003400   -1.53517700    0.09344400
 H                 -2.07166000   -1.45753500    1.60420800

