 9

 O                 -0.45756100    1.28055700    1.07658000
 O                 -0.21807300    0.00009200   -1.71791400
 O                 -0.45668900   -1.28132300    1.07615600
 O                  1.72702600    0.00044300    0.64103500
 P                  0.39193800   -0.00028900    1.69376100
Ca                  0.86830300   -1.64669400   -0.72730000
Ca                  0.86692500    1.64771600   -0.72668400
Ca                 -2.05814500   -0.00070900   -0.21986400
 H                 -4.17836800   -0.00008700   -0.53629500

