 9

 O                 -3.10107300   -1.46661700    0.15175700
 O                 -2.19505200    0.82962100   -0.19481200
 O                  0.81705800    0.07035800    0.28308600
 O                  5.00930200   -0.60190800   -0.16834100
 P                 -3.49519000    0.01229100    0.03517700
Ca                  2.99673400   -0.12174300    0.12212400
Ca                 -0.15117800    2.03542000   -0.03476000
Ca                 -0.73235200   -1.41506600   -0.12418900
 H                  5.92189800   -0.80822900   -0.36468700

