 9

 O                  2.35101500    0.81959300    0.73410200
 O                  2.16114800    1.16512400   -0.77720100
 O                 -0.28955500   -0.65802800   -0.64079800
 O                 -2.07833000    1.73861700   -0.05093800
 P                 -0.46488500   -1.65255600    0.94962900
Ca                  1.95806000   -1.06157900   -0.41934100
Ca                 -2.52069900   -0.46102900   -0.38099100
Ca                  0.18577500    1.41086100    0.37702500
 H                 -2.64366100    2.50083300    0.10038600

