 6

 O                 -0.02433900   -1.91747200   -0.00066800
 O                  1.29393400    1.26245900    0.00121200
 O                 -1.26031300    1.29350500    0.00040300
 P                  0.02735600    2.15024700   -0.00073200
Ca                 -1.88353400   -0.91086500    0.00019500
Ca                  1.85930300   -0.95721700   -0.00002600
