 6

 O                 -1.27865800    1.27661700    0.00033300
 O                  1.27558900    1.27941200   -0.00025000
 O                  0.00223000   -1.91721800   -0.00001400
 P                 -0.00251700    2.15032100   -0.00003400
Ca                 -1.87073000   -0.93626600   -0.00008000
Ca                  1.87295300   -0.93199900    0.00007900
