 6

 O                  0.00001600    0.93587700   -1.04574900
 O                  0.00000900   -1.60091700    0.12036900
 O                  0.00008000   -0.57155500    1.22827200
 P                 -0.00004500    1.54742700    0.50275000
Ca                 -1.82859000   -0.33298500   -0.24910500
Ca                  1.82858100   -0.33294800   -0.24911500
