 6

 O                  1.63167700    0.58912800    0.16921800
 O                 -0.66897200    1.69433300    0.07538200
 O                 -0.90992100   -1.73256800    0.23643500
 P                  0.85988200    1.92722300    0.09283100
Ca                  1.20308900   -1.65902000    0.27084100
Ca                 -2.16811100   -0.03665400    0.13009300
