 6

 O                  1.95354500   -0.09564300   -0.76557400
 O                  1.95282300   -0.09492300    0.76587900
 O                 -0.37807100   -0.84920800   -0.00055200
 P                  1.08415700   -1.40829300    0.00018100
Ca                  0.39184200    1.66784100   -0.00011400
Ca                 -2.61627800   -0.19571200    0.00007800
