 6

 O                  1.28704700    1.26865800   -0.00034300
 O                 -1.26699100    1.28710200    0.00133100
 O                 -0.01449700   -1.91696000   -0.00041500
 P                  0.01632100    2.15023800   -0.00044800
Ca                  1.86466900   -0.94793000    0.00028200
Ca                 -1.87913300   -0.92026900   -0.00017500
