 6

 O                 -0.55027700   -1.71478100   -0.00173400
 O                 -1.72298500    0.55412000    0.00146100
 O                  1.70238000    0.88708900    0.00845200
 P                 -1.91165800   -0.98095100   -0.00300800
Ca                 -0.03090100    2.09810500    0.00817900
Ca                  1.68808500   -1.22725500    0.00357100
