 6

 O                 -1.29231800    1.26363700    0.00406400
 O                  0.02240600   -1.91704000   -0.00040900
 O                  1.26111200    1.29182300    0.00477900
 P                 -0.02511100    2.15006100   -0.00345200
Ca                 -1.86037800   -0.95535800   -0.00029600
Ca                  1.88273200   -0.91255600   -0.00048900
