 6

 O                  1.25350500    1.29811300   -0.01349800
 O                 -1.30026800    1.25334000   -0.00385800
 O                  0.03337900   -1.91911800    0.01571600
 P                 -0.03869000    2.14797200   -0.01530000
Ca                  1.88750100   -0.90302200    0.00103900
Ca                 -1.85541900   -0.96896700    0.01537200
