 6

 O                  1.41148100    0.86231500   -0.78429000
 O                 -0.78346200   -1.10185200   -0.00004200
 O                  1.41127100    0.86212800    0.78453700
 P                 -2.34303600   -0.80193300    0.00002600
Ca                 -0.57182400    1.56406200   -0.00005500
Ca                  1.51338500   -1.21164800   -0.00004700
