 6

 O                  0.25985300    0.01540700    1.20658800
 O                 -1.68207300    1.20612400   -0.00013500
 O                  0.25967000    0.01466800   -1.20647400
 P                 -0.11922300    1.18284100   -0.00017200
Ca                 -1.59090800   -1.03798900    0.00013400
Ca                  2.14534500   -0.34362200    0.00000300
