 6

 O                  1.27367200    1.28153400    0.00044900
 O                 -1.28090200    1.27499600    0.00037500
 O                  0.00518300   -1.91806700   -0.00008400
 P                 -0.00578000    2.15066100   -0.00032900
Ca                 -1.86868300   -0.93912600   -0.00001500
Ca                  1.87383700   -0.92925500   -0.00003500
