 6

 O                 -1.29736700    1.25938100   -0.00001100
 O                  1.25674300    1.29659700   -0.00008400
 O                  0.02942400   -1.91777300    0.00016800
 P                 -0.03310800    2.15024000    0.00006500
Ca                 -1.85655200   -0.96206400   -0.00004900
Ca                  1.88586300   -0.90589900   -0.00002900
