 6

 O                  0.00002100   -0.72475300    0.57437400
 O                  1.32744400    1.24761100   -0.40873200
 O                 -1.32750400    1.24766200   -0.40854600
 P                 -0.00003800    1.11917000    0.45752700
Ca                 -2.12660000   -0.77382300   -0.12301600
Ca                  2.12664400   -0.77376200   -0.12296800
